<?xml version="1.0" encoding="UTF-8"?>

<!-- generated on Sat May 25 11:49:01 2019 by SUMO netconvert Version 0.32.0
<?xml version="1.0" encoding="UTF-8"?>

<configuration xmlns:xsi="http://www.w3.org/2001/XMLSchema-instance" xsi:noNamespaceSchemaLocation="http://sumo.dlr.de/xsd/netconvertConfiguration.xsd">

    <input>
        <type-files value="/home/rd/Downloads/sumo-0.32.0/data/typemap/osmNetconvertUrbanDe.typ.xml"/>
        <osm-files value="3/map.osm"/>
    </input>

    <output>
        <output-file value="3/map.net.xml"/>
    </output>

    <projection>
        <proj.utm value="true"/>
    </projection>

    <tls_building>
        <tls.discard-simple value="true"/>
        <tls.join value="true"/>
        <tls.guess-signals value="true"/>
    </tls_building>

    <ramp_guessing>
        <ramps.guess value="true"/>
    </ramp_guessing>

    <processing>
        <geometry.remove value="true"/>
        <roundabouts.guess value="true"/>
        <junctions.join value="true"/>
    </processing>

</configuration>
-->

<net version="0.27" xmlns:xsi="http://www.w3.org/2001/XMLSchema-instance" xsi:noNamespaceSchemaLocation="http://sumo.dlr.de/xsd/net_file.xsd">

    <location netOffset="-353132.10,-5259334.97" convBoundary="0.00,0.00,651.84,714.25" origBoundary="19.048202,47.470563,19.063940,47.477655" projParameter="+proj=utm +zone=34 +ellps=WGS84 +datum=WGS84 +units=m +no_defs"/>

    <type id="highway.motorway" speed="27.78"/>
    <type id="highway.motorway_link" speed="16.67"/>
    <type id="highway.primary" speed="13.89"/>
    <type id="highway.primary_link" speed="13.89"/>
    <type id="highway.secondary" speed="13.89"/>
    <type id="highway.secondary_link" speed="13.89"/>
    <type id="highway.tertiary" speed="13.89"/>
    <type id="highway.tertiary_link" speed="13.89"/>
    <type id="highway.trunk" speed="13.89"/>
    <type id="highway.trunk_link" speed="13.89"/>

    <edge id=":1404431649_0" function="internal">
        <lane id=":1404431649_0_0" index="0" speed="13.89" length="3.13" shape="518.84,579.48 516.21,579.81"/>
        <lane id=":1404431649_0_1" index="1" speed="13.89" length="3.13" shape="518.84,579.48 517.82,576.92"/>
        <lane id=":1404431649_0_2" index="2" speed="13.89" length="3.13" shape="520.67,576.73 519.42,574.04"/>
        <lane id=":1404431649_0_3" index="3" speed="13.89" length="3.13" shape="522.50,573.99 521.02,571.15"/>
        <lane id=":1404431649_0_4" index="4" speed="13.89" length="3.13" shape="524.33,571.24 522.62,568.27"/>
        <lane id=":1404431649_0_5" index="5" speed="13.89" length="3.13" shape="526.16,568.50 525.44,567.71 525.22,566.89 524.99,566.10 524.23,565.39"/>
    </edge>
    <edge id=":1420470437_0" function="internal">
        <lane id=":1420470437_0_0" index="0" speed="13.89" length="3.89" shape="330.65,504.16 331.49,499.80"/>
        <lane id=":1420470437_0_1" index="1" speed="13.89" length="3.89" shape="330.65,504.16 333.13,502.67"/>
        <lane id=":1420470437_0_2" index="2" speed="13.89" length="3.89" shape="330.65,504.16 334.76,505.53"/>
    </edge>
    <edge id=":262999135_0" function="internal">
        <lane id=":262999135_0_0" index="0" speed="13.89" length="3.48" shape="366.99,486.14 367.69,485.53 367.88,484.80 368.04,484.03 368.68,483.29"/>
        <lane id=":262999135_0_1" index="1" speed="13.89" length="3.48" shape="366.99,486.14 370.52,486.03"/>
    </edge>
    <edge id=":262999135_2" function="internal">
        <lane id=":262999135_2_0" index="0" speed="13.89" length="3.47" shape="366.99,486.14 369.46,483.56"/>
        <lane id=":262999135_2_1" index="1" speed="13.89" length="3.47" shape="366.99,486.14 367.89,486.00 368.54,486.33 369.22,486.73 370.17,486.78"/>
    </edge>
    <edge id=":268747721_0" function="internal">
        <lane id=":268747721_0_0" index="0" speed="13.89" length="19.23" shape="414.39,462.95 415.87,468.30 417.15,472.04 419.34,475.11 423.57,478.43"/>
        <lane id=":268747721_0_1" index="1" speed="13.89" length="19.23" shape="411.55,464.97 413.19,470.61 414.69,474.51 417.17,477.68 421.73,481.17"/>
    </edge>
    <edge id=":268747721_2" function="internal">
        <lane id=":268747721_2_0" index="0" speed="13.89" length="14.88" shape="411.41,469.95 423.57,478.43"/>
        <lane id=":268747721_2_1" index="1" speed="13.89" length="14.88" shape="409.53,472.66 421.73,481.17"/>
        <lane id=":268747721_2_2" index="2" speed="13.89" length="14.88" shape="407.64,475.37 419.89,483.91"/>
    </edge>
    <edge id=":268747721_5" function="internal">
        <lane id=":268747721_5_0" index="0" speed="13.89" length="11.83" shape="409.65,478.13 413.39,478.59 416.05,478.77 418.52,479.39 421.73,481.17"/>
        <lane id=":268747721_5_1" index="1" speed="13.89" length="11.83" shape="409.36,481.43 412.62,481.79 414.94,481.90 417.10,482.39 419.89,483.91"/>
    </edge>
    <edge id=":2776406169_0" function="internal">
        <lane id=":2776406169_0_0" index="0" speed="13.89" length="3.54" shape="433.21,373.38 433.20,374.36 433.60,375.04 434.00,375.72 434.01,376.70"/>
        <lane id=":2776406169_0_1" index="1" speed="13.89" length="3.54" shape="433.21,373.38 432.70,374.23 432.01,374.61 431.32,374.99 430.82,375.84"/>
    </edge>
    <edge id=":302276563_0" function="internal">
        <lane id=":302276563_0_0" index="0" speed="13.89" length="15.05" shape="402.62,477.52 401.13,473.15 399.89,470.21 398.94,467.21 398.30,462.69"/>
        <lane id=":302276563_0_1" index="1" speed="13.89" length="15.05" shape="405.64,476.15 404.23,472.05 403.06,469.28 402.17,466.46 401.57,462.21"/>
    </edge>
    <edge id=":302276563_2" function="internal">
        <lane id=":302276563_2_0" index="0" speed="13.89" length="16.00" shape="396.42,463.61 399.55,465.13 402.90,466.06 406.72,467.33 411.24,469.84"/>
        <lane id=":302276563_2_1" index="1" speed="13.89" length="16.00" shape="396.42,463.61 409.36,472.55"/>
        <lane id=":302276563_2_2" index="2" speed="13.89" length="16.00" shape="396.42,463.61 398.96,465.98 401.02,468.78 403.55,471.90 407.48,475.26"/>
    </edge>
    <edge id=":4787106515_0" function="internal">
        <lane id=":4787106515_0_0" index="0" speed="13.89" length="4.82" shape="140.50,380.95 141.05,379.57 141.76,378.99 142.66,379.21 143.73,380.24"/>
    </edge>
    <edge id=":4787122832_0" function="internal">
        <lane id=":4787122832_0_0" index="0" speed="13.89" length="3.51" shape="211.11,335.92 211.98,336.23 212.72,336.06 213.46,335.87 214.36,336.15"/>
        <lane id=":4787122832_0_1" index="1" speed="13.89" length="3.51" shape="209.18,338.60 210.09,338.93 210.85,338.78 211.62,338.61 212.54,338.91"/>
        <lane id=":4787122832_0_2" index="2" speed="13.89" length="3.51" shape="207.25,341.28 208.19,341.64 208.98,341.50 209.77,341.35 210.73,341.67"/>
    </edge>
    <edge id=":4787122833_0" function="internal">
        <lane id=":4787122833_0_0" index="0" speed="13.89" length="3.53" shape="200.96,326.65 201.91,326.98 202.70,326.84 203.49,326.70 204.42,327.06"/>
        <lane id=":4787122833_0_1" index="1" speed="13.89" length="3.53" shape="200.96,326.65 201.60,327.40 201.74,328.18 201.87,328.96 202.50,329.74"/>
        <lane id=":4787122833_0_2" index="2" speed="13.89" length="3.53" shape="199.11,329.38 199.73,330.12 199.85,330.88 199.96,331.66 200.57,332.42"/>
        <lane id=":4787122833_0_3" index="3" speed="13.89" length="3.53" shape="197.26,332.12 197.86,332.84 197.96,333.59 198.06,334.36 198.65,335.10"/>
    </edge>
    <edge id=":4787122834_0" function="internal">
        <lane id=":4787122834_0_0" index="0" speed="13.89" length="3.55" shape="312.90,402.23 313.84,402.55 314.62,402.40 315.40,402.24 316.33,402.57"/>
        <lane id=":4787122834_0_1" index="1" speed="13.89" length="3.55" shape="312.90,402.23 313.54,402.98 313.68,403.76 313.82,404.54 314.46,405.29"/>
        <lane id=":4787122834_0_2" index="2" speed="13.89" length="3.55" shape="311.05,404.97 311.69,405.71 311.82,406.49 311.96,407.26 312.59,408.01"/>
        <lane id=":4787122834_0_3" index="3" speed="13.89" length="3.55" shape="309.20,407.70 309.84,408.44 309.97,409.21 310.09,409.99 310.72,410.73"/>
    </edge>
    <edge id=":5712102846_0" function="internal">
        <lane id=":5712102846_0_0" index="0" speed="13.89" length="11.14" shape="380.03,484.21 371.29,477.30"/>
        <lane id=":5712102846_0_1" index="1" speed="13.89" length="11.14" shape="382.08,481.62 373.33,474.71"/>
        <lane id=":5712102846_0_2" index="2" speed="13.89" length="11.14" shape="384.12,479.03 375.38,472.12"/>
    </edge>
    <edge id=":5712102846_3" function="internal">
        <lane id=":5712102846_3_0" index="0" speed="13.89" length="5.42" shape="371.12,481.65 372.28,480.61 372.69,479.53 372.36,478.43 371.29,477.30"/>
    </edge>
    <edge id=":5712102846_4" function="internal">
        <lane id=":5712102846_4_0" index="0" speed="13.89" length="14.62" shape="371.12,481.65 374.65,479.27 377.01,477.55 379.24,475.67 382.37,472.78"/>
        <lane id=":5712102846_4_1" index="1" speed="13.89" length="14.62" shape="372.96,484.39 376.62,481.92 379.07,480.14 381.38,478.19 384.62,475.19"/>
    </edge>
    <edge id=":5712102849_0" function="internal">
        <lane id=":5712102849_0_0" index="0" speed="13.89" length="8.46" shape="391.74,456.60 393.43,458.29 394.02,460.01 394.60,461.76 396.25,463.50"/>
    </edge>
    <edge id=":5712102849_1" function="internal">
        <lane id=":5712102849_1_0" index="0" speed="13.89" length="9.81" shape="388.91,466.44 390.83,464.32 392.00,462.75 393.03,461.07 394.51,458.62"/>
        <lane id=":5712102849_1_1" index="1" speed="13.89" length="9.81" shape="391.56,468.44 393.54,466.25 394.74,464.63 395.80,462.89 397.32,460.36"/>
    </edge>
    <edge id=":5712102849_3" function="internal">
        <lane id=":5712102849_3_0" index="0" speed="13.89" length="6.92" shape="391.56,468.44 392.47,467.29 393.86,465.49 395.27,463.93 396.25,463.50"/>
    </edge>
    <edge id=":5712109927_0" function="internal">
        <lane id=":5712109927_0_0" index="0" speed="13.89" length="29.66" shape="413.65,516.22 405.24,510.42 398.39,505.53 392.91,502.07 388.64,500.52"/>
    </edge>
    <edge id=":5712109927_1" function="internal">
        <lane id=":5712109927_1_0" index="0" speed="13.89" length="24.38" shape="413.65,516.22 408.19,511.64 405.34,507.49 402.61,503.18 397.51,498.11"/>
        <lane id=":5712109927_1_1" index="1" speed="13.89" length="24.38" shape="415.47,513.46 410.03,508.89 407.19,504.76 404.48,500.45 399.40,495.39"/>
        <lane id=":5712109927_1_2" index="2" speed="13.89" length="24.38" shape="417.28,510.71 411.86,506.15 409.05,502.02 406.35,497.73 401.29,492.68"/>
    </edge>
    <edge id=":5712109927_4" function="internal">
        <lane id=":5712109927_4_0" index="0" speed="13.89" length="7.66" shape="420.91,505.19 418.91,503.71 417.76,502.44 416.84,500.94 415.52,498.78"/>
        <lane id=":5712109927_4_1" index="1" speed="13.89" length="7.66" shape="422.72,502.44 421.13,501.24 420.22,500.20 419.50,498.98 418.45,497.24"/>
    </edge>
    <edge id=":659405365_0" function="internal">
        <lane id=":659405365_0_0" index="0" speed="13.89" length="7.60" shape="397.02,441.33 399.03,440.25 400.49,439.48 401.58,438.42 402.49,436.47"/>
    </edge>
    <edge id=":659405365_1" function="internal">
        <lane id=":659405365_1_0" index="0" speed="13.89" length="7.64" shape="400.22,443.81 402.49,436.47"/>
        <lane id=":659405365_1_1" index="1" speed="13.89" length="7.64" shape="403.37,444.79 405.62,437.53"/>
    </edge>
    <edge id=":659405366_0" function="internal">
        <lane id=":659405366_0_0" index="0" speed="13.89" length="6.30" shape="376.82,444.17 378.40,445.11 379.62,445.49 380.93,445.61 382.80,445.77"/>
    </edge>
    <edge id=":659405366_1" function="internal">
        <lane id=":659405366_1_0" index="0" speed="13.89" length="6.64" shape="374.95,446.89 376.68,447.79 378.03,448.09 379.38,448.40 381.10,449.31"/>
        <lane id=":659405366_1_1" index="1" speed="13.89" length="6.64" shape="373.08,449.61 374.81,450.51 376.15,450.81 377.49,451.11 379.21,452.02"/>
        <lane id=":659405366_1_2" index="2" speed="13.89" length="6.64" shape="371.21,452.33 372.93,453.22 374.27,453.52 375.61,453.82 377.32,454.72"/>
    </edge>
    <edge id=":688953504_0" function="internal">
        <lane id=":688953504_0_0" index="0" speed="13.89" length="10.31" shape="398.28,462.49 397.92,459.29 397.62,457.08 397.59,454.88 398.02,451.71"/>
        <lane id=":688953504_0_1" index="1" speed="13.89" length="10.31" shape="401.56,462.01 401.22,459.13 400.93,457.14 400.88,455.16 401.27,452.32"/>
    </edge>
    <edge id=":688953504_2" function="internal">
        <lane id=":688953504_2_0" index="0" speed="13.89" length="8.25" shape="394.62,458.45 395.89,456.56 396.81,455.27 397.48,453.88 398.02,451.71"/>
        <lane id=":688953504_2_1" index="1" speed="13.89" length="8.25" shape="397.42,460.19 398.88,457.99 399.91,456.47 400.65,454.84 401.27,452.32"/>
    </edge>
    <edge id=":688953543_0" function="internal">
        <lane id=":688953543_0_0" index="0" speed="13.89" length="4.47" shape="365.42,490.50 366.77,486.24"/>
    </edge>
    <edge id=":688953656_0" function="internal">
        <lane id=":688953656_0_0" index="0" speed="11.11" length="0.10" shape="176.99,587.40 176.99,587.40"/>
    </edge>
    <edge id=":708278394_0" function="internal">
        <lane id=":708278394_0_0" index="0" speed="13.89" length="10.58" shape="407.65,487.08 406.02,484.36 404.78,482.55 403.72,480.66 402.68,477.71"/>
        <lane id=":708278394_0_1" index="1" speed="13.89" length="10.58" shape="410.59,485.58 408.99,482.90 407.77,481.11 406.74,479.25 405.70,476.34"/>
    </edge>
    <edge id=":708278394_2" function="internal">
        <lane id=":708278394_2_0" index="0" speed="13.89" length="10.01" shape="399.32,478.23 402.34,478.05 404.41,477.80 406.48,477.73 409.45,478.10"/>
        <lane id=":708278394_2_1" index="1" speed="13.89" length="10.01" shape="399.37,481.53 402.29,481.35 404.30,481.11 406.29,481.04 409.17,481.39"/>
    </edge>
    <edge id=":708278398_0" function="internal">
        <lane id=":708278398_0_0" index="0" speed="13.89" length="10.79" shape="388.62,491.04 380.19,484.33"/>
        <lane id=":708278398_0_1" index="1" speed="13.89" length="10.79" shape="390.68,488.45 382.23,481.74"/>
        <lane id=":708278398_0_2" index="2" speed="13.89" length="10.79" shape="392.73,485.87 384.28,479.15"/>
    </edge>
    <edge id=":708278398_3" function="internal">
        <lane id=":708278398_3_0" index="0" speed="13.89" length="15.82" shape="377.47,481.77 382.04,480.68 385.17,479.88 388.32,479.27 392.98,478.72"/>
        <lane id=":708278398_3_1" index="1" speed="13.89" length="15.82" shape="378.19,484.99 382.76,483.90 385.89,483.12 389.04,482.52 393.70,481.97"/>
    </edge>
    <edge id=":cluster_262999133_3408861956_3408861957_41469018_0" function="internal">
        <lane id=":cluster_262999133_3408861956_3408861957_41469018_0_0" index="0" speed="13.89" length="8.75" shape="193.42,580.74 190.90,582.02 189.23,583.49 188.39,585.15 188.40,586.99"/>
    </edge>
    <edge id=":cluster_262999133_3408861956_3408861957_41469018_1" function="internal">
        <lane id=":cluster_262999133_3408861956_3408861957_41469018_1_0" index="0" speed="13.89" length="13.08" shape="193.42,580.74 181.30,585.66"/>
    </edge>
    <edge id=":cluster_262999133_3408861956_3408861957_41469018_2" function="internal">
        <lane id=":cluster_262999133_3408861956_3408861957_41469018_2_0" index="0" speed="13.89" length="16.32" shape="193.42,580.74 189.16,581.25 185.63,579.03 182.85,574.07 182.29,571.98"/>
    </edge>
    <edge id=":cluster_262999133_3408861956_3408861957_41469018_3" function="internal">
        <lane id=":cluster_262999133_3408861956_3408861957_41469018_3_0" index="0" speed="13.89" length="17.76" shape="193.42,580.74 187.11,579.52 184.09,576.93 184.35,572.95 186.21,570.15"/>
    </edge>
    <edge id=":cluster_262999133_3408861956_3408861957_41469018_12" function="internal">
        <lane id=":cluster_262999133_3408861956_3408861957_41469018_12_0" index="0" speed="13.89" length="5.80" shape="182.29,571.98 180.81,566.37"/>
    </edge>
    <edge id=":cluster_262999133_3408861956_3408861957_41469018_13" function="internal">
        <lane id=":cluster_262999133_3408861956_3408861957_41469018_13_0" index="0" speed="13.89" length="3.07" shape="186.21,570.15 187.90,567.59"/>
    </edge>
    <edge id=":cluster_262999133_3408861956_3408861957_41469018_4" function="internal">
        <lane id=":cluster_262999133_3408861956_3408861957_41469018_4_0" index="0" speed="13.89" length="5.26" shape="184.02,565.61 184.50,566.99 185.30,567.78 186.43,567.98 187.90,567.59"/>
    </edge>
    <edge id=":cluster_262999133_3408861956_3408861957_41469018_5" function="internal">
        <lane id=":cluster_262999133_3408861956_3408861957_41469018_5_0" index="0" speed="13.89" length="22.17" shape="184.02,565.61 184.28,569.76 184.13,574.83 184.21,580.82 185.17,587.70"/>
    </edge>
    <edge id=":cluster_262999133_3408861956_3408861957_41469018_6" function="internal">
        <lane id=":cluster_262999133_3408861956_3408861957_41469018_6_0" index="0" speed="13.89" length="21.39" shape="184.02,565.61 185.07,573.47 184.97,579.43 183.71,583.49 181.30,585.66"/>
    </edge>
    <edge id=":cluster_262999133_3408861956_3408861957_41469018_7" function="internal">
        <lane id=":cluster_262999133_3408861956_3408861957_41469018_7_0" index="0" speed="13.89" length="2.82" shape="184.02,565.61 183.50,567.00 182.80,567.60 182.40,567.50"/>
    </edge>
    <edge id=":cluster_262999133_3408861956_3408861957_41469018_14" function="internal">
        <lane id=":cluster_262999133_3408861956_3408861957_41469018_14_0" index="0" speed="13.89" length="2.01" shape="182.40,567.50 181.90,567.39 180.81,566.37"/>
    </edge>
    <edge id=":cluster_262999133_3408861956_3408861957_41469018_8" function="internal">
        <lane id=":cluster_262999133_3408861956_3408861957_41469018_8_0" index="0" speed="13.89" length="8.74" shape="176.20,573.05 178.49,571.64 180.03,570.05 180.80,568.30 180.81,566.37"/>
    </edge>
    <edge id=":cluster_262999133_3408861956_3408861957_41469018_9" function="internal">
        <lane id=":cluster_262999133_3408861956_3408861957_41469018_9_0" index="0" speed="13.89" length="12.91" shape="176.20,573.05 187.90,567.59"/>
    </edge>
    <edge id=":cluster_262999133_3408861956_3408861957_41469018_10" function="internal">
        <lane id=":cluster_262999133_3408861956_3408861957_41469018_10_0" index="0" speed="13.89" length="13.87" shape="176.20,573.05 178.70,573.00 181.04,575.42 183.19,580.32 183.88,582.88"/>
    </edge>
    <edge id=":cluster_262999133_3408861956_3408861957_41469018_11" function="internal">
        <lane id=":cluster_262999133_3408861956_3408861957_41469018_11_0" index="0" speed="13.89" length="16.97" shape="176.20,573.05 182.20,574.29 185.05,576.81 184.75,580.59 182.93,583.27"/>
    </edge>
    <edge id=":cluster_262999133_3408861956_3408861957_41469018_15" function="internal">
        <lane id=":cluster_262999133_3408861956_3408861957_41469018_15_0" index="0" speed="13.89" length="4.98" shape="183.88,582.88 185.17,587.70"/>
    </edge>
    <edge id=":cluster_262999133_3408861956_3408861957_41469018_16" function="internal">
        <lane id=":cluster_262999133_3408861956_3408861957_41469018_16_0" index="0" speed="13.89" length="2.89" shape="182.93,583.27 181.30,585.66"/>
    </edge>

    <edge id="-465252452#3" from="cluster_262999133_3408861956_3408861957_41469018" to="4787106515" priority="-1" type="highway.tertiary" shape="183.23,569.55 182.51,566.51 181.66,561.88 180.16,554.94 171.00,512.25 142.12,380.60">
        <lane id="-465252452#3_0" index="0" speed="13.89" length="189.75" shape="180.81,566.37 180.04,562.20 178.55,555.29 169.39,512.60 140.50,380.95"/>
    </edge>
    <edge id="126765642" from="1404431649" to="5712109927" priority="-1" type="highway.secondary" spreadType="center" shape="521.39,573.25 482.40,551.58 426.26,514.64">
        <lane id="126765642_0" index="0" speed="13.89" length="120.13" shape="516.21,579.81 478.12,558.64 413.65,516.22"/>
        <lane id="126765642_1" index="1" speed="13.89" length="120.13" shape="517.82,576.92 479.83,555.82 415.47,513.46"/>
        <lane id="126765642_2" index="2" speed="13.89" length="120.13" shape="519.42,574.04 481.54,552.99 417.28,510.71"/>
        <lane id="126765642_3" index="3" speed="13.89" length="120.13" shape="521.02,571.15 483.25,550.17 419.10,507.95"/>
        <lane id="126765642_4" index="4" speed="13.89" length="120.13" shape="522.62,568.27 484.96,547.34 420.91,505.19"/>
        <lane id="126765642_5" index="5" speed="13.89" length="120.13" shape="524.23,565.39 486.67,544.52 422.72,502.44"/>
    </edge>
    <edge id="126765646" from="1404431645" to="1404431649" priority="-1" type="highway.secondary" spreadType="center">
        <lane id="126765646_0" index="0" speed="13.89" length="57.72" shape="566.86,611.50 518.84,579.48"/>
        <lane id="126765646_1" index="1" speed="13.89" length="57.72" shape="568.69,608.76 520.67,576.73"/>
        <lane id="126765646_2" index="2" speed="13.89" length="57.72" shape="570.53,606.01 522.50,573.99"/>
        <lane id="126765646_3" index="3" speed="13.89" length="57.72" shape="572.36,603.27 524.33,571.24"/>
        <lane id="126765646_4" index="4" speed="13.89" length="57.72" shape="574.19,600.52 526.16,568.50"/>
    </edge>
    <edge id="161324505#0" from="659405365" to="302276301" priority="-1" type="highway.secondary" spreadType="center" shape="404.06,437.00 409.41,421.16 414.24,406.50 422.61,382.29 426.89,368.42 435.47,339.16 437.66,329.94 438.66,324.39 438.93,322.87 439.82,314.13 440.28,305.46 440.30,296.94 439.31,287.86 437.71,277.28 435.62,269.25 432.86,260.84 429.09,253.09 424.47,244.03 419.76,235.56 414.37,228.07 407.96,220.62 398.00,210.81 385.61,201.45 307.76,149.11 288.33,136.04 270.56,123.77 258.09,113.72 246.85,102.61 235.85,89.49 223.99,74.04 213.26,58.02 202.71,39.90 193.15,22.11 189.95,15.51 183.62,0.00">
        <lane id="161324505#0_0" index="0" speed="13.89" length="551.22" shape="402.49,436.47 407.85,420.63 412.68,405.97 421.04,381.78 425.31,367.95 433.87,338.74 436.04,329.61 437.03,324.10 437.29,322.64 438.17,314.01 438.63,305.41 438.65,297.03 437.68,288.07 436.10,277.61 434.04,269.71 431.32,261.46 427.61,253.82 423.02,244.80 418.36,236.45 413.07,229.09 406.75,221.75 396.92,212.06 384.65,202.80 306.84,150.48 287.40,137.41 269.57,125.09 256.99,114.95 245.64,103.73 234.57,90.52 222.65,75.00 211.86,58.89 201.27,40.70 191.68,22.86 188.44,16.18 182.10,0.62"/>
        <lane id="161324505#0_1" index="1" speed="13.89" length="551.22" shape="405.62,437.53 410.98,421.68 415.80,407.03 424.18,382.81 428.47,368.90 437.06,339.58 439.27,330.28 440.28,324.68 440.57,323.10 441.47,314.26 441.93,305.50 441.95,296.85 440.95,287.65 439.33,276.95 437.20,268.78 434.39,260.22 430.56,252.35 425.93,243.25 421.16,234.67 415.67,227.04 409.16,219.49 399.08,209.56 386.57,200.11 308.68,147.74 289.26,134.68 271.55,122.45 259.19,112.48 248.07,101.49 237.14,88.45 225.33,73.08 214.66,57.14 204.15,39.09 194.62,21.36 191.45,14.84 185.15,-0.62"/>
    </edge>
    <edge id="262231240#0" from="708278394" to="302276563" priority="-1" type="highway.secondary_link" spreadType="center" shape="405.68,479.78 404.34,476.87 402.75,472.40 401.04,466.77">
        <lane id="262231240#0_0" index="0" speed="13.89" length="0.20" shape="402.68,477.71 402.62,477.52"/>
        <lane id="262231240#0_1" index="1" speed="13.89" length="0.20" shape="405.70,476.34 405.64,476.15"/>
    </edge>
    <edge id="27533470" from="302276563" to="688953504" priority="-1" type="highway.secondary" spreadType="center" shape="401.04,466.77 399.82,460.97 399.26,454.09">
        <lane id="27533470_0" index="0" speed="13.89" length="0.20" shape="398.30,462.69 398.28,462.49"/>
        <lane id="27533470_1" index="1" speed="13.89" length="0.20" shape="401.57,462.21 401.56,462.01"/>
    </edge>
    <edge id="299376586#0" from="2776406169" to="268747721" priority="-1" type="highway.secondary" spreadType="center" shape="432.80,374.82 423.67,408.77 418.92,424.94 413.88,442.86 412.50,448.52 412.08,455.84 412.39,459.16 412.50,462.43 413.18,464.66 414.25,468.73 415.62,471.90 422.94,481.98">
        <lane id="299376586#0_0" index="0" speed="13.89" length="90.49" shape="434.01,376.70 425.26,409.21 420.50,425.40 415.47,443.28 414.14,448.77 413.74,455.81 414.04,459.05 414.15,462.16 414.39,462.95"/>
        <lane id="299376586#0_1" index="1" speed="13.89" length="90.49" shape="430.82,375.84 422.08,408.32 417.33,424.49 412.28,442.44 410.86,448.28 410.43,455.87 410.74,459.26 410.86,462.70 411.55,464.97"/>
    </edge>
    <edge id="32800986#0" from="5712109927" to="cluster_262999133_3408861956_3408861957_41469018" priority="-1" type="highway.tertiary_link" spreadType="center" shape="426.26,514.64 397.37,501.91 390.32,500.71 380.76,499.63 376.21,500.06 373.07,500.41 359.00,505.73 336.88,515.15 286.49,538.03 199.87,578.02 196.55,579.47 186.00,583.75">
        <lane id="32800986#0_0" index="0" speed="13.89" length="212.49" shape="388.64,500.52 380.76,499.63 376.21,500.06 373.07,500.41 359.00,505.73 336.88,515.15 286.49,538.03 199.87,578.02 196.55,579.47 193.42,580.74"/>
    </edge>
    <edge id="37349559" from="cluster_262999133_3408861956_3408861957_41469018" to="688953656" priority="-1" type="highway.tertiary" spreadType="center" shape="186.00,583.75 176.99,587.40">
        <lane id="37349559_0" index="0" speed="13.89" length="4.64" shape="181.30,585.66 176.99,587.40"/>
    </edge>
    <edge id="423587826" from="688953656" to="268151975" priority="-1" type="highway.tertiary" spreadType="center" shape="176.99,587.40 168.06,592.07 100.19,621.32">
        <lane id="423587826_0" index="0" speed="8.33" length="83.98" shape="176.99,587.40 168.06,592.07 100.19,621.32"/>
    </edge>
    <edge id="465237873" from="708278398" to="5712102846" priority="-1" type="highway.secondary" spreadType="center">
        <lane id="465237873_0" index="0" speed="13.89" length="0.20" shape="380.19,484.33 380.03,484.21"/>
        <lane id="465237873_1" index="1" speed="13.89" length="0.20" shape="382.23,481.74 382.08,481.62"/>
        <lane id="465237873_2" index="2" speed="13.89" length="0.20" shape="384.28,479.15 384.12,479.03"/>
    </edge>
    <edge id="465252452#0" from="4787106515" to="cluster_262999133_3408861956_3408861957_41469018" priority="-1" type="highway.tertiary" shape="142.12,380.60 171.00,512.25 180.16,554.94 181.66,561.88 182.51,566.51 183.23,569.55">
        <lane id="465252452#0_0" index="0" speed="13.89" length="189.69" shape="143.73,380.24 172.62,511.90 181.78,554.59 183.27,561.55 184.02,565.61"/>
    </edge>
    <edge id="46848908#0" from="cluster_262999133_3408861956_3408861957_41469018" to="50572348" priority="-1" type="highway.tertiary" spreadType="center" shape="186.00,583.75 186.66,586.77 187.72,591.60 188.78,596.26 213.27,703.55 215.69,714.25">
        <lane id="46848908#0_0" index="0" speed="13.89" length="130.15" shape="188.40,586.99 189.33,591.24 190.39,595.89 214.88,703.19 217.30,713.88"/>
        <lane id="46848908#0_1" index="1" speed="13.89" length="130.15" shape="185.17,587.70 186.11,591.96 187.17,596.63 211.66,703.92 214.08,714.61"/>
    </edge>
    <edge id="46848909#0" from="cluster_262999133_3408861956_3408861957_41469018" to="1420470437" priority="-1" type="highway.tertiary" spreadType="center" shape="183.23,569.55 191.37,566.14 251.49,539.63 281.08,527.63 320.61,510.51 331.87,503.38">
        <lane id="46848909#0_0" index="0" speed="13.89" length="156.36" shape="187.90,567.59 191.37,566.14 251.49,539.63 281.08,527.63 320.61,510.51 330.65,504.16"/>
    </edge>
    <edge id="470806363#0" from="268747721" to="305574032" priority="-1" type="highway.secondary" spreadType="center" shape="422.94,481.98 504.86,536.83 540.73,561.65 577.62,587.01 606.61,607.15 621.76,617.63 651.84,638.55">
        <lane id="470806363#0_0" index="0" speed="13.89" length="278.79" shape="423.57,478.43 506.71,534.10 542.60,558.94 579.50,584.29 608.49,604.43 623.65,614.92 653.72,635.84"/>
        <lane id="470806363#0_1" index="1" speed="13.89" length="278.79" shape="421.73,481.17 504.86,536.83 540.73,561.65 577.62,587.01 606.61,607.15 621.76,617.63 651.84,638.55"/>
        <lane id="470806363#0_2" index="2" speed="13.89" length="278.79" shape="419.89,483.91 503.00,539.56 538.86,564.37 575.74,589.72 604.73,609.86 619.88,620.34 649.96,641.26"/>
    </edge>
    <edge id="485955798" from="1420470437" to="688953543" priority="-1" type="highway.tertiary" spreadType="center" shape="331.87,503.38 342.13,497.53 360.41,489.16 365.41,486.87">
        <lane id="485955798_0" index="0" speed="13.89" length="34.47" shape="331.49,499.80 340.62,494.59 359.04,486.16 362.68,484.49"/>
        <lane id="485955798_1" index="1" speed="13.89" length="34.47" shape="333.13,502.67 342.13,497.53 360.41,489.16 364.05,487.50"/>
        <lane id="485955798_2" index="2" speed="13.89" length="34.47" shape="334.76,505.53 343.64,500.47 361.79,492.16 365.42,490.50"/>
    </edge>
    <edge id="485955802" from="4787122834" to="659405366" priority="-1" type="highway.secondary" spreadType="center">
        <lane id="485955802_0" index="0" speed="13.89" length="73.41" shape="316.33,402.57 376.82,444.17"/>
        <lane id="485955802_1" index="1" speed="13.89" length="73.41" shape="314.46,405.29 374.95,446.89"/>
        <lane id="485955802_2" index="2" speed="13.89" length="73.41" shape="312.59,408.01 373.08,449.61"/>
        <lane id="485955802_3" index="3" speed="13.89" length="73.41" shape="310.72,410.73 371.21,452.33"/>
    </edge>
    <edge id="485955803" from="4787122833" to="4787122832" priority="-1" type="highway.secondary" spreadType="center">
        <lane id="485955803_0" index="0" speed="13.89" length="10.60" shape="204.42,327.06 213.03,333.24"/>