<?xml version="1.0" encoding="UTF-8"?>

<!-- generated on Sat May 25 11:49:01 2019 by SUMO polyconvert Version 0.32.0
<?xml version="1.0" encoding="UTF-8"?>

<configuration xmlns:xsi="http://www.w3.org/2001/XMLSchema-instance" xsi:noNamespaceSchemaLocation="http://sumo.dlr.de/xsd/polyconvertConfiguration.xsd">

    <input>
        <net-file value="3/map.net.xml"/>
        <osm-files value="3/map.osm"/>
        <type-file value="/home/rd/Downloads/sumo-0.32.0/data/typemap/osmPolyconvert.typ.xml"/>
    </input>

    <output>
        <output-file value="3/map.typ.xml"/>
    </output>

    <processing>
        <poi-layer-offset value="5"/>
    </processing>

</configuration>
-->

<additional xmlns:xsi="http://www.w3.org/2001/XMLSchema-instance" xsi:noNamespaceSchemaLocation="http://sumo.dlr.de/xsd/additional_file.xsd">
    <location netOffset="-353132.10,-5259334.97" convBoundary="-189.30,-173.07,1007.44,1369.48" origBoundary="19.048202,47.469553,19.064375,47.483262" projParameter="+proj=utm +zone=34 +ellps=WGS84 +datum=WGS84 +units=m +no_defs"/>

    <poly id="104335073" type="building" color="255,230,230" fill="1" layer="-1.00" shape="428.34,558.28 421.17,552.97 415.20,554.82 407.56,555.87 399.86,556.66 391.27,556.42 383.31,555.70 375.38,553.45 366.99,550.17 359.27,546.28 351.20,541.11 345.41,536.25 341.40,532.41 337.23,528.51 336.03,527.38 334.77,528.42 329.52,532.78 335.27,539.37 336.45,540.02 341.40,544.54 346.95,548.66 352.20,551.89 358.32,555.52 365.16,558.48 364.50,564.35 373.11,567.95 382.03,570.62 391.34,571.56 400.23,571.60 407.87,570.54 407.91,566.47 414.77,565.50 419.65,564.34 422.67,566.41 428.34,558.28"/>
    <poly id="104335075" type="building" color="255,230,230" fill="1" layer="-1.00" shape="337.85,565.57 330.48,576.17 318.90,568.15 327.82,558.50 328.99,559.29 329.40,559.14 329.93,559.05 330.47,559.03 337.85,565.57"/>
    <poly id="104335076" type="building" color="255,230,230" fill="1" layer="-1.00" shape="332.04,542.05 332.91,544.13 318.14,550.99 320.28,553.52 312.10,561.23 305.93,554.51 298.66,544.65 327.31,531.37 328.25,533.56 329.52,532.78 335.27,539.37 333.29,541.19 332.04,542.05"/>
    <poly id="128566792" type="building" color="255,230,230" fill="1" layer="-1.00" shape="195.72,554.19 270.55,520.02 265.10,500.94 263.50,487.95 263.34,480.77 263.63,472.51 264.18,461.27 267.80,444.33 267.74,443.23 267.47,442.22 266.90,441.43 155.81,365.34 147.45,376.70 154.39,408.65 168.48,406.35 163.82,390.40 165.89,388.95 171.29,392.59 169.81,394.36 251.53,449.71 249.14,460.00 248.24,471.94 248.13,480.40 248.70,489.08 250.83,504.05 252.20,511.81 204.46,533.32 203.72,529.83 191.48,532.53 195.72,554.19"/>
    <poly id="128566797" type="building" color="255,230,230" fill="1" layer="-1.00" shape="289.48,510.77 320.14,497.42 318.89,490.79 318.02,484.13 317.50,476.46 291.31,458.54 282.59,470.17 295.77,479.27 295.51,479.93 297.66,481.28 297.09,482.37 300.22,484.45 300.75,483.58 303.16,485.14 303.47,484.58 304.18,488.67 303.05,489.14 302.49,488.02 298.95,489.40 299.20,490.74 283.15,497.87 289.48,510.77"/>
    <poly id="128566799" type="building" color="255,230,230" fill="1" layer="-1.00" shape="167.68,425.24 184.58,421.61 203.75,510.03 186.85,513.68 167.68,425.24"/>
    <poly id="165983323" type="leisure" color="207,245,201" fill="1" layer="-2.00" shape="556.28,313.33 569.77,315.76 570.67,310.78 588.40,313.97 585.20,331.57 602.69,334.72 596.42,369.18 579.13,366.06 576.22,382.02 561.61,379.38 560.66,384.65 543.86,381.62 556.28,313.33"/>
    <poly id="165983323#1" type="sport" color="79,230,125" fill="1" layer="-2.00" shape="556.28,313.33 569.77,315.76 570.67,310.78 588.40,313.97 585.20,331.57 602.69,334.72 596.42,369.18 579.13,366.06 576.22,382.02 561.61,379.38 560.66,384.65 543.86,381.62 556.28,313.33"/>
    <poly id="172153930" type="building" color="255,230,230" fill="1" layer="-1.00" shape="472.71,346.74 523.19,380.92 540.64,354.07 532.60,348.62 490.77,320.23 472.71,346.74"/>
    <poly id="185110645" type="landuse" color="194,194,130" fill="1" layer="-3.00" shape="679.95,393.18 669.58,380.27 681.67,370.92 671.78,358.89 662.73,347.49 656.66,350.29 649.24,335.10 662.70,328.32 716.15,301.38 723.38,316.86 717.90,319.94 722.61,325.91 727.69,332.45 746.02,318.32 752.75,326.60 756.60,331.32 690.25,384.87 679.95,393.18"/>
    <poly id="189299053" type="amenity" color="237,199,199" fill="1" layer="-1.00" shape="592.85,315.72 591.00,308.90 600.06,306.40 602.00,313.21 592.85,315.72"/>
    <poly id="189299053#1" type="building" color="255,230,230" fill="1" layer="-1.00" shape="592.85,315.72 591.00,308.90 600.06,306.40 602.00,313.21 592.85,315.72"/>
    <poly id="191072445" type="landuse" color="194,194,130" fill="1" layer="-3.00" shape="652.01,408.57 585.84,462.07 626.00,488.36 654.01,506.70 694.97,448.25 681.94,439.91 664.82,423.66 652.01,408.57"/>
    <poly id="191072446" type="amenity" color="237,199,199" fill="1" layer="-1.00" shape="647.53,466.99 652.50,462.77 654.77,459.11 655.67,455.47 655.17,450.84 653.05,446.16 650.74,444.59 652.59,426.08 656.02,422.84 651.16,417.04 625.36,438.76 627.31,441.26 624.47,443.80 611.63,445.83 612.82,449.75 615.04,453.60 617.84,459.18 621.56,463.61 626.10,467.50 631.74,470.72 637.93,472.97 641.34,474.41 646.52,475.22 647.53,466.99"/>
    <poly id="191072446#1" type="building" color="255,230,230" fill="1" layer="-1.00" shape="647.53,466.99 652.50,462.77 654.77,459.11 655.67,455.47 655.17,450.84 653.05,446.16 650.74,444.59 652.59,426.08 656.02,422.84 651.16,417.04 625.36,438.76 627.31,441.26 624.47,443.80 611.63,445.83 612.82,449.75 615.04,453.60 617.84,459.18 621.56,463.61 626.10,467.50 631.74,470.72 637.93,472.97 641.34,474.41 646.52,475.22 647.53,466.99"/>
    <poly id="226137924" type="building" color="255,230,230" fill="1" layer="-1.00" shape="153.33,609.42 180.08,597.19 182.32,598.58 188.06,624.19 174.20,627.42 173.61,627.56 172.84,624.27 174.28,623.94 172.16,616.04 162.46,620.31 162.30,620.92 157.98,622.85 153.33,609.42"/>
    <poly id="226151091" type="building" color="255,230,230" fill="1" layer="-1.00" shape="155.76,527.95 160.60,526.90 160.81,527.88 166.17,526.72 164.63,519.63 164.99,519.55 164.27,516.25 163.86,516.34 163.32,513.81 162.71,511.02 163.11,510.93 162.26,507.03 161.88,507.12 160.37,500.18 155.24,501.29 155.43,502.18 150.47,503.26 151.81,509.45 151.57,509.50 152.07,511.79 154.10,511.35 154.49,513.19 158.20,512.38 158.06,511.78 159.79,511.40 160.44,514.40 160.97,516.82 159.07,517.23 158.95,516.70 155.39,517.48 155.77,519.23 153.95,519.63 155.76,527.95"/>
    <poly id="226151106" type="building" color="255,230,230" fill="1" layer="-1.00" shape="164.48,563.08 169.37,560.89 168.11,556.12 169.05,555.78 165.80,539.75 158.48,541.56 158.78,543.26 144.08,546.67 143.87,545.90 137.33,547.29 139.44,555.62 145.97,554.16 145.82,553.27 152.25,551.88 153.65,558.17 150.72,558.94 150.98,561.72 150.13,562.08 152.17,566.37 158.82,563.32 158.05,561.61 162.97,559.51 164.48,563.08"/>
    <poly id="226404966" type="tourism" color="207,245,201" fill="1" layer="-2.00" shape="293.11,310.69 319.84,327.89 335.78,303.28 309.05,286.09 293.11,310.69"/>
    <poly id="226404967" type="tourism" color="207,245,201" fill="1" layer="-2.00" shape="338.99,349.55 366.95,367.21 385.60,337.89 357.65,320.22 338.99,349.55"/>
    <poly id="226405722" type="building" color="255,230,230" fill="1" layer="-1.00" shape="351.32,655.60 368.99,655.90 369.15,643.32 369.24,636.60 372.66,630.98 315.82,592.59 310.55,589.03 295.05,611.80 304.62,618.23 310.46,609.79 312.45,607.30 316.86,606.28 357.79,633.82 357.80,636.90 351.41,637.38 351.32,655.60"/>
    <poly id="228385345" type="farm" color="242,242,204" fill="0" layer="-3.00" shape="434.32,405.24 442.25,410.42 449.57,415.81 454.88,420.68 460.69,427.35 466.80,435.70 621.28,360.49 605.48,321.71 594.84,327.16 586.74,304.96 456.42,328.44"/>
    <poly id="26246570" type="residential" color="235,235,227" fill="0" layer="-3.00" shape="259.51,1360.04 259.31,1349.42 259.27,1347.28 258.96,1330.72 258.02,1280.46 255.96,1229.64 255.53,1212.05 254.20,1151.96 253.27,1106.38 252.09,1071.24 251.97,1069.03 249.43,1031.91 248.60,1019.76 248.24,1014.19 246.37,986.17 246.05,979.45 245.26,967.80 244.54,956.78 321.88,942.88 331.01,942.23 330.85,940.54 358.58,935.64 365.37,934.37 395.72,928.88 399.98,907.75 400.68,832.53 402.37,734.92 402.56,705.85 402.87,654.00 402.39,642.36 407.95,628.66 389.57,616.27 397.71,604.27 407.38,589.92 419.44,571.03 422.67,566.41 428.34,558.28"/>
    <poly id="268560259" type="leisure" color="207,245,201" fill="1" layer="-2.00" shape="443.36,394.60 482.11,420.64 508.98,380.90 470.23,354.86 443.36,394.60"/>
    <poly id="268560259#1" type="sport" color="79,230,125" fill="1" layer="-2.00" shape="443.36,394.60 482.11,420.64 508.98,380.90 470.23,354.86 443.36,394.60"/>
    <poly id="268560260" type="leisure" color="207,245,201" fill="0" layer="-2.00" shape="494.78,322.95 495.98,323.24 499.33,324.44 501.90,325.05 504.02,325.23 536.77,319.82 539.05,319.59 541.97,319.60 544.04,320.01 545.99,320.58 547.59,321.91 548.77,323.73 549.40,325.27 549.79,327.28 549.78,329.24 537.96,385.19 536.29,389.54 535.19,391.96 533.45,393.93 531.56,395.85 529.19,397.53 477.48,425.41 476.11,425.77 474.56,425.84 473.16,425.84 471.84,425.74 470.58,425.56 469.60,425.19 443.90,407.93 442.80,406.30 442.39,404.94 441.95,403.86 441.38,401.98 441.01,400.66 440.87,399.19 440.78,396.66 440.90,394.70 441.13,392.68 446.61,382.57 485.78,325.68 486.82,324.82 488.52,323.64"/>
    <poly id="268560260#1" type="sport" color="79,230,125" fill="0" layer="-2.00" shape="494.78,322.95 495.98,323.24 499.33,324.44 501.90,325.05 504.02,325.23 536.77,319.82 539.05,319.59 541.97,319.60 544.04,320.01 545.99,320.58 547.59,321.91 548.77,323.73 549.40,325.27 549.79,327.28 549.78,329.24 537.96,385.19 536.29,389.54 535.19,391.96 533.45,393.93 531.56,395.85 529.19,397.53 477.48,425.41 476.11,425.77 474.56,425.84 473.16,425.84 471.84,425.74 470.58,425.56 469.60,425.19 443.90,407.93 442.80,406.30 442.39,404.94 441.95,403.86 441.38,401.98 441.01,400.66 440.87,399.19 440.78,396.66 440.90,394.70 441.13,392.68 446.61,382.57 485.78,325.68 486.82,324.82 488.52,323.64"/>
    <poly id="310879120" type="landuse" color="194,194,130" fill="1" layer="-3.00" shape="652.01,408.57 642.40,395.58 635.78,386.58 627.53,372.64 529.26,423.09 585.84,462.07 652.01,408.57"/>
    <poly id="32800591" type="amenity" color="237,199,199" fill="1" layer="-1.00" shape="594.31,441.37 599.56,437.21 600.30,438.40 634.20,410.56 633.20,409.37 640.18,403.90 635.34,401.94 636.95,400.63 604.29,388.09 609.14,419.29 593.03,432.68 594.31,441.37"/>
    <poly id="32800591#1" type="building" color="255,230,230" fill="1" layer="-1.00" shape="594.31,441.37 599.56,437.21 600.30,438.40 634.20,410.56 633.20,409.37 640.18,403.90 635.34,401.94 636.95,400.63 604.29,388.09 609.14,419.29 593.03,432.68 594.31,441.37"/>
    <poly id="32801232" type="building" color="255,230,230" fill="1" layer="-1.00" shape="419.44,571.03 430.18,578.47 455.63,596.09 459.80,599.01 474.04,608.85 475.36,606.93 496.68,621.47 495.37,623.40 508.09,632.21 511.40,627.51 515.14,622.02 516.87,619.60 505.89,612.00 503.74,610.51 483.98,596.82 438.55,565.34 428.34,558.28 422.67,566.41 419.44,571.03"/>
    <poly id="32801239" type="amenity" color="237,199,199" fill="1" layer="-1.00" shape="312.70,583.03 387.12,633.72 387.20,661.56 368.88,660.50 346.79,659.48 346.60,668.72 309.90,668.12 308.00,668.12 304.68,668.09 304.97,658.56 281.24,642.09 280.49,640.95 279.87,639.75 278.64,637.06 278.22,635.49 278.42,633.90 279.06,632.29 280.52,629.96 309.23,588.09 312.70,583.03"/>
    <poly id="32801240" type="tourism" color="207,245,201" fill="1" layer="-2.00" shape="224.48,606.61 226.85,620.74 218.14,623.51 218.65,626.89 220.82,626.65 221.92,632.16 220.47,632.26 221.03,635.05 220.08,635.33 220.94,639.40 229.00,677.73 259.93,680.76 264.73,681.31 270.81,634.96 277.45,625.88 308.53,580.42 297.98,566.69 287.09,572.14 284.22,585.81 242.10,604.09 239.96,599.47 224.48,606.61"/>
    <poly id="330198852" type="residential" color="235,235,227" fill="0" layer="-3.00" shape="458.34,308.14 456.42,328.44"/>
    <poly id="330198853" type="farm" color="242,242,204" fill="0" layer="-3.00" shape="456.42,328.44 434.32,405.24"/>
    <poly id="330198854" type="residential" color="235,235,227" fill="0" layer="-3.00" shape="459.89,509.68 435.74,546.87 428.34,558.28"/>
    <poly id="330198863" type="amenity" color="237,199,199" fill="0" layer="-1.00" shape="428.34,558.28 438.55,565.34 483.98,596.82 503.74,610.51 505.89,612.00 516.87,619.60 515.14,622.02 533.70,634.60 535.30,632.31 539.22,626.56 545.21,630.61 544.32,631.93 549.43,635.39 550.26,634.16 556.80,638.60 544.73,656.27 543.67,657.85 540.45,662.55 513.81,701.57 512.40,703.62 503.13,715.94 507.04,718.69 536.55,739.52 543.53,744.44 553.82,751.85 558.20,755.01 559.17,755.71 561.79,752.06 588.46,770.09 590.59,771.54 659.87,818.69 657.14,822.04 671.66,832.50 657.14,852.51 660.99,855.29 655.19,863.29 648.17,872.97 644.51,870.33 641.80,874.05 588.98,946.91 587.06,949.59 592.26,953.75 589.73,957.16 588.57,958.73 587.28,960.43 584.05,964.79 583.55,965.47 569.44,984.71 570.45,985.44 552.55,1009.70 533.03,1029.50 494.32,1082.07 490.27,1087.68 484.83,1095.07 472.27,1112.10 434.58,1163.72 431.85,1162.15 430.27,1161.78 428.53,1161.76 426.58,1162.13 424.83,1162.87 422.67,1165.75 415.96,1174.82 414.44,1173.71 403.94,1187.90 392.76,1202.99 393.98,1203.88 387.57,1212.53 386.40,1214.14 385.74,1216.38 385.74,1218.55 386.42,1220.91 387.57,1222.69 390.35,1224.82 337.16,1297.06 326.26,1311.53 290.78,1360.24 284.19,1369.31 283.23,1369.48 275.34,1367.10 271.86,1366.04 267.55,1364.72 261.71,1362.93 259.51,1360.04"/>
    <poly id="330198866" type="residential" color="235,235,227" fill="0" layer="-3.00" shape="434.32,405.24 413.88,442.86 412.50,448.52 412.08,455.83 412.39,459.15 412.50,462.43 413.18,464.66 414.25,468.72 415.62,471.89 422.94,481.97 459.89,509.68"/>
    <poly id="418052932" type="leisure" color="207,245,201" fill="1" layer="-2.00" shape="597.84,317.87 597.07,314.91 600.86,313.83 601.73,316.79 597.84,317.87"/>
    <poly id="43829196" type="building" color="255,230,230" fill="1" layer="-1.00" shape="511.31,432.04 519.87,448.06 521.93,449.57 523.07,450.40 529.79,441.00 533.50,443.48 534.85,441.59 560.25,458.57 549.72,473.28 537.57,464.54 521.96,499.87 507.36,489.67 521.33,457.29 518.62,455.68 513.53,451.77 478.19,468.73 476.40,457.66 477.21,457.27 474.27,450.86 511.31,432.04"/>
    <poly id="43830067" type="building" color="255,230,230" fill="1" layer="-1.00" shape="573.43,519.02 582.11,534.16 619.98,514.70 608.92,500.54 580.00,515.06 571.68,509.37 585.96,476.49 571.29,465.93 555.45,501.30 543.12,492.89 531.87,506.46 561.83,527.04 569.45,516.52 573.43,519.02"/>
    <poly id="46907444" type="building" color="255,230,230" fill="1" layer="-1.00" shape="356.46,394.49 366.48,401.20 402.72,347.49 392.70,340.77 356.46,394.49"/>
    <poly id="46907445" type="building" color="255,230,230" fill="1" layer="-1.00" shape="364.43,298.59 367.87,293.46 370.74,289.45 395.91,306.65 389.71,315.67 375.95,306.27 371.44,312.82 365.81,308.97 367.89,305.96 371.02,308.10 373.36,304.69 364.43,298.59"/>
    <poly id="46907446" type="amenity" color="237,199,199" fill="1" layer="-1.00" shape="355.54,311.81 364.43,298.59 367.87,293.46 340.78,274.75 362.89,243.45 394.03,264.00 385.69,276.39 412.94,294.61 397.42,317.68 391.25,326.85 395.93,329.98 391.84,336.07 355.54,311.81"/>
    <poly id="46907457" type="building" color="255,230,230" fill="1" layer="-1.00" shape="255.72,325.93 265.47,332.59 301.87,279.58 292.11,272.92 255.72,325.93"/>
    <poly id="46907458" type="building" color="255,230,230" fill="1" layer="-1.00" shape="305.83,359.79 315.96,366.72 352.52,313.62 342.40,306.69 305.83,359.79"/>
    <poly id="46907459" type="amenity" color="237,199,199" fill="1" layer="-1.00" shape="221.56,302.87 248.32,321.09 262.68,300.13 235.92,281.91 221.56,302.87"/>
    <poly id="46907459#1" type="building" color="255,230,230" fill="1" layer="-1.00" shape="221.56,302.87 248.32,321.09 262.68,300.13 235.92,281.91 221.56,302.87"/>
    <poly id="46907459#2" type="residential" color="235,235,227" fill="1" layer="-3.00" shape="221.56,302.87 248.32,321.09 262.68,300.13 235.92,281.91 221.56,302.87"/>
    <poly id="46907460" type="building" color="255,230,230" fill="1" layer="-1.00" shape="272.19,336.63 298.88,355.03 311.03,337.07 310.51,332.70 285.81,316.29 272.19,336.63"/>
    <poly id="46907461" type="building" color="255,230,230" fill="1" layer="-1.00" shape="322.59,371.14 349.07,389.33 363.22,368.89 336.74,350.69 322.59,371.14"/>
    <poly id="46907464" type="building" color="255,230,230" fill="1" layer="-1.00" shape="409.54,310.79 405.23,317.36 403.86,316.47 399.04,323.81 406.07,328.39 405.44,329.33 408.07,331.06 408.56,330.31 415.50,334.84 420.36,327.44 419.54,326.90 423.95,320.18 409.54,310.79"/>
    <poly id="475927500" type="building" color="255,230,230" fill="1" layer="-1.00" shape="330.48,576.17 342.26,584.31 349.53,573.80 337.85,565.57 330.48,576.17"/>
    <poly id="475927501" type="building" color="255,230,230" fill="1" layer="-1.00" shape="397.71,604.27 379.52,591.99 371.38,603.99 389.57,616.27 397.71,604.27"/>
    <poly id="477522096" type="amenity" color="237,199,199" fill="1" layer="-1.00" shape="431.91,589.41 435.84,583.63 449.66,592.94 445.75,598.73 431.91,589.41"/>
    <poly id="477882722" type="landuse" color="194,194,130" fill="1" layer="-3.00" shape="467.25,453.62 466.80,435.70 460.69,427.35 454.88,420.68 449.57,415.81 442.25,410.42 434.32,405.24 420.25,451.26 421.22,460.75 434.81,479.64 454.03,492.97 497.85,522.04 510.90,531.24 570.08,571.18 590.34,577.42 598.22,582.52 634.83,534.93 654.01,506.70 626.00,488.36 625.20,516.34 623.33,520.19 620.51,523.43 582.40,540.85 466.99,467.43 467.25,453.62"/>
    <poly id="477882723" type="commercial" color="209,209,204" fill="1" layer="-3.00" shape="529.26,423.09 467.25,453.62 466.99,467.43 582.40,540.85 620.51,523.43 623.33,520.19 625.20,516.34 626.00,488.36 585.84,462.07 529.26,423.09"/>
    <poly id="477883319" type="landuse" color="194,194,130" fill="1" layer="-3.00" shape="529.26,423.09 585.84,462.07 626.00,488.36 654.01,506.70 694.97,448.25 681.94,439.91 664.82,423.66 652.01,408.57 642.40,395.58 635.78,386.58 627.53,372.64 529.26,423.09"/>
    <poly id="477892682" type="landuse" color="194,194,130" fill="1" layer="-3.00" shape="511.32,600.90 528.99,596.56 531.40,598.26 533.59,595.06 521.64,587.75 521.16,587.76 520.60,587.91 520.12,588.24 519.30,589.62 504.10,579.43 503.41,580.42 454.40,547.09 412.10,518.12 406.76,515.55 400.16,512.49 397.17,511.46 394.13,510.69 391.20,510.23 388.03,509.79 383.15,509.47 379.20,509.30 377.30,509.48 375.89,509.87 373.91,510.66 348.21,522.78 350.03,524.51 352.92,526.96 361.51,533.37 362.69,534.11 363.09,534.25 363.54,534.18 364.15,533.98 367.77,532.51 368.68,532.30 369.43,532.26 369.95,532.37 370.62,532.73 378.67,535.48 384.34,536.88 390.92,537.59 397.40,538.10 404.13,537.71 408.73,536.97 417.70,535.69 422.58,535.92 422.28,541.20 422.40,541.47 422.76,541.70 423.30,541.83 428.62,543.26 431.05,544.32 435.74,546.87 428.34,558.28 438.55,565.34 483.98,596.82 488.04,590.37 490.64,586.50 511.32,600.90"/>
    <poly id="482021202" type="parking" color="184,184,179" fill="1" layer="-1.00" shape="222.08,601.29 224.48,606.61 239.96,599.47 242.10,604.09 284.22,585.81 287.09,572.14 286.13,569.72 222.08,601.29"/>
    <poly id="482455861" type="building" color="255,230,230" fill="1" layer="-1.00" shape="171.19,359.04 175.88,352.17 177.53,349.76 212.48,373.48 206.14,382.76 171.19,359.04"/>
    <poly id="482455862" type="building" color="255,230,230" fill="1" layer="-1.00" shape="171.19,359.04 175.88,352.17 164.78,344.63 160.09,351.50 171.19,359.04"/>
    <poly id="485949836" type="building" color="255,230,230" fill="1" layer="-1.00" shape="218.14,623.51 202.79,626.96 197.09,599.38 213.28,595.66 218.14,623.51"/>
    <poly id="485949838" type="building" color="255,230,230" fill="1" layer="-1.00" shape="197.09,599.38 195.06,590.01 208.71,586.76 210.90,585.75 210.17,584.11 278.72,553.55 283.63,564.79 215.59,595.24 213.28,595.66 197.09,599.38"/>
    <poly id="485949840" type="amenity" color="237,199,199" fill="1" layer="-1.00" shape="284.52,555.95 284.69,554.00 283.08,552.88 281.31,553.70 281.14,555.65 282.74,556.77 284.52,555.95"/>
    <poly id="485949840#1" type="building" color="255,230,230" fill="1" layer="-1.00" shape="284.52,555.95 284.69,554.00 283.08,552.88 281.31,553.70 281.14,555.65 282.74,556.77 284.52,555.95"/>
    <poly id="485954529" type="landuse" color="194,194,130" fill="1" layer="-3.00" shape="280.33,448.59 286.02,428.89 287.92,424.68 288.65,423.71 299.96,431.77 312.45,440.86 327.20,450.55 334.22,455.57 361.12,474.98 361.65,476.80 361.16,478.18 360.33,478.63 340.00,487.64 338.29,490.07 333.26,492.44 322.74,496.46 319.71,474.79 305.77,465.48 294.68,458.00 280.33,448.59"/>
    <poly id="485954530" type="landuse" color="194,194,130" fill="1" layer="-3.00" shape="186.85,513.68 167.68,425.24 158.59,427.13 154.39,408.65 168.48,406.35 163.82,390.40 165.89,388.95 171.29,392.59 169.81,394.36 251.53,449.71 249.14,460.00 248.24,471.94 248.13,480.40 248.70,489.08 250.83,504.05 252.20,511.81 204.46,533.32 203.72,529.83 191.48,532.53 186.85,513.68"/>
    <poly id="485954537" type="building" color="255,230,230" fill="1" layer="-1.00" shape="274.90,371.09 246.82,352.26 253.10,342.95 276.08,358.36 274.20,361.14 279.29,364.56 274.90,371.09"/>
    <poly id="485954538" type="building" color="255,230,230" fill="1" layer="-1.00" shape="274.79,371.24 274.90,371.09 279.29,364.56 281.59,361.15 292.70,368.59 285.90,378.69 274.79,371.24"/>
    <poly id="487995115" type="amenity" color="237,199,199" fill="1" layer="-1.00" shape="288.18,560.18 288.35,558.24 286.75,557.11 284.97,557.94 284.79,559.89 286.40,561.00 288.18,560.18"/>
    <poly id="487995115#1" type="building" color="255,230,230" fill="1" layer="-1.00" shape="288.18,560.18 288.35,558.24 286.75,557.11 284.97,557.94 284.79,559.89 286.40,561.00 288.18,560.18"/>
    <poly id="505632941" type="leisure" color="207,245,201" fill="0" layer="-2.00" shape="488.52,323.64 490.10,323.10 491.93,322.81 493.50,322.80 494.78,322.95"/>
    <poly id="505632941#1" type="sport" color="79,230,125" fill="0" layer="-2.00" shape="488.52,323.64 490.10,323.10 491.93,322.81 493.50,322.80 494.78,322.95"/>
    <poly id="583478181" type="tourism" color="207,245,201" fill="1" layer="-2.00" shape="191.48,532.53 186.85,513.68 203.75,510.03 184.58,421.61 158.59,427.13 154.39,408.65 168.48,406.35 163.82,390.40 165.89,388.95 171.29,392.59 169.81,394.36 251.53,449.71 249.14,460.00 248.24,471.94 248.13,480.40 248.70,489.08 250.83,504.05 252.20,511.81 204.46,533.32 203.72,529.83 191.48,532.53"/>
    <poly id="667400188" type="landuse" color="194,194,130" fill="0" layer="-3.00" shape="669.82,124.17 650.50,152.02 633.85,187.40 627.34,217.03 624.04,253.39 625.38,285.03 627.76,303.20 633.79,326.91 642.40,347.61 657.48,376.34 662.32,383.56 688.65,411.16 702.86,424.17 710.93,410.14 713.20,397.09 711.13,390.49 710.93,388.91 711.02,387.22 711.42,386.05 712.37,384.80 742.76,362.46 743.81,363.27 745.84,363.46 747.84,362.61 750.76,359.91 752.01,357.71 751.19,355.37 766.95,350.48 771.55,343.37 775.97,336.65 789.72,312.52 791.03,307.10 791.83,301.03 859.20,313.21 859.94,307.84 866.14,308.94 865.34,314.22 898.36,320.20 898.78,319.09 898.68,318.16 898.62,317.52 900.94,318.28 903.49,319.27 902.56,319.86 902.49,320.91 903.14,321.86 923.05,326.07 922.27,332.31 907.19,329.50 903.36,335.83 905.91,336.96 904.23,346.68 888.26,437.39 883.36,436.38 871.94,501.08 881.55,502.29 887.81,497.49 911.02,423.63 931.12,351.24 949.12,275.76 960.25,221.21 970.45,163.70 978.94,103.84 983.04,71.02 980.53,52.65 989.26,24.76 993.13,-26.38 995.26,-46.95 998.40,-90.09 1001.65,-118.18 1004.22,-143.10 1007.44,-173.07"/>
    <poly id="82478984" type="tourism" color="207,245,201" fill="1" layer="-2.00" shape="881.55,502.29 830.69,623.54 825.12,629.95 819.37,632.21 800.83,633.65 784.92,618.12 776.86,612.44 771.21,609.39 764.86,606.53 758.66,603.92 751.63,601.57 744.91,600.64 739.33,600.61 733.63,601.39 726.70,603.24 720.96,605.88 715.75,609.79 709.68,615.64 702.68,623.82 697.88,627.68 686.59,638.52 682.75,642.20 634.58,607.02 598.22,582.52 634.83,534.93 654.01,506.70 694.97,448.25 696.53,435.19 702.86,424.17 710.93,410.14 713.20,397.09 711.13,390.49 710.93,388.91 711.02,387.22 711.42,386.05 712.37,384.80 742.76,362.46 743.81,363.27 745.84,363.46 747.84,362.61 750.76,359.91 752.01,357.71 751.19,355.37 766.95,350.48 762.03,375.26 758.22,396.77 754.35,419.02 752.69,426.91 751.70,431.97 750.73,436.88 749.83,441.51 749.02,445.63 748.10,450.35 747.01,455.75 746.63,458.88 747.98,461.23 766.96,468.24 809.57,481.75 809.73,480.98 871.94,501.08 881.55,502.29"/>
    <poi id="1253012754" type="amenity" color="237,199,199" layer="4.00" x="219.40" y="586.39"/>
    <poi id="1262391014" type="historic" color="128,255,128" layer="4.00" x="366.05" y="520.25"/>
    <poi id="1327371992" type="amenity" color="237,199,199" layer="4.00" x="343.65" y="367.44"/>
    <poi id="2346766197" type="amenity" color="237,199,199" layer="4.00" x="283.29" y="346.87"/>
    <poi id="2507687928" type="amenity" color="237,199,199" layer="4.00" x="690.25" y="384.87"/>
    <poi id="268800768" type="amenity" color="237,199,199" layer="4.00" x="262.39" y="355.39"/>
    <poi id="268800831" type="amenity" color="237,199,199" layer="4.00" x="190.75" y="365.50"/>
    <poi id="2991295343" type="amenity" color="237,199,199" layer="4.00" x="538.02" y="472.29"/>
    <poi id="3156211181" type="amenity" color="237,199,199" layer="4.00" x="174.26" y="595.57"/>
    <poi id="3371575100" type="amenity" color="237,199,199" layer="4.00" x="296.40" y="539.04"/>
    <poi id="3476494379" type="shop" color="237,199,255" layer="4.00" x="199.78" y="593.52"/>
    <poi id="3708650882" type="amenity" color="237,199,199" layer="4.00" x="197.44" y="585.53"/>
    <poi id="4185089191" type="amenity" color="237,199,199" layer="4.00" x="503.75" y="442.93"/>
    <poi id="4471262524" type="natural" color="140,196,107" layer="1.00" x="445.79" y="483.70"/>
    <poi id="4551024803" type="tourism" color="207,245,201" layer="3.00" x="671.29" y="550.80"/>
    <poi id="4551024804" type="tourism" color="207,245,201" layer="3.00" x="655.78" y="538.74"/>
    <poi id="4606813574" type="shop" color="237,199,255" layer="4.00" x="203.96" y="586.28"/>
    <poi id="4711838440" type="man_made" color="255,230,230" layer="4.00" x="481.59" y="567.37"/>
    <poi id="4711838441" type="man_made" color="255,230,230" layer="4.00" x="454.72" y="548.56"/>
    <poi id="4787141143" type="amenity" color="237,199,199" layer="4.00" x="286.58" y="595.15"/>
    <poi id="4787141144" type="amenity" color="237,199,199" layer="4.00" x="288.13" y="586.61"/>
    <poi id="4802426163" type="amenity" color="237,199,199" layer="4.00" x="277.49" y="591.60"/>
    <poi id="4804468967" type="amenity" color="237,199,199" layer="4.00" x="321.92" y="317.03"/>
    <poi id="4804468968" type="amenity" color="237,199,199" layer="4.00" x="311.96" y="314.66"/>
    <poi id="4804468969" type="amenity" color="237,199,199" layer="4.00" x="315.33" y="316.24"/>
    <poi id="5135600794" type="shop" color="237,199,255" layer="4.00" x="212.29" y="585.06"/>
    <poi id="5135600795" type="shop" color="237,199,255" layer="4.00" x="215.67" y="583.37"/>
    <poi id="5172542865" type="amenity" color="237,199,199" layer="4.00" x="560.96" y="494.88"/>
    <poi id="5430897814" type="amenity" color="237,199,199" layer="4.00" x="209.16" y="566.26"/>
    <poi id="5430897816" type="amenity" color="237,199,199" layer="4.00" x="245.38" y="550.03"/>
    <poi id="5430897817" type="amenity" color="237,199,199" layer="4.00" x="221.80" y="560.53"/>
    <poi id="5430898122" type="amenity" color="237,199,199" layer="4.00" x="232.86" y="555.48"/>
    <poi id="557671215" type="shop" color="237,199,255" layer="4.00" x="285.44" y="330.84"/>
    <poi id="5711976719" type="amenity" color="237,199,199" layer="4.00" x="194.62" y="557.55"/>
    <poi id="5711988521" type="amenity" color="237,199,199" layer="4.00" x="201.17" y="583.23"/>
    <poi id="5711988522" type="amenity" color="237,199,199" layer="4.00" x="280.10" y="548.49"/>
    <poi id="5711988523" type="amenity" color="237,199,199" layer="4.00" x="288.56" y="550.80"/>
    <poi id="5711988526" type="amenity" color="237,199,199" layer="4.00" x="271.86" y="519.01"/>
    <poi id="5713159041" type="amenity" color="237,199,199" layer="4.00" x="402.81" y="375.88"/>
    <poi id="5713159042" type="amenity" color="237,199,199" layer="4.00" x="404.24" y="371.70"/>
    <poi id="5713159043" type="amenity" color="237,199,199" layer="4.00" x="407.81" y="357.04"/>
    <poi id="5713159044" type="amenity" color="237,199,199" layer="4.00" x="404.76" y="356.39"/>
    <poi id="5713180125" type="amenity" color="237,199,199" layer="4.00" x="274.11" y="414.78"/>
    <poi id="5713180126" type="amenity" color="237,199,199" layer="4.00" x="267.72" y="438.05"/>
    <poi id="5713184363" type="amenity" color="237,199,199" layer="4.00" x="320.25" y="378.57"/>
    <poi id="5848645158" type="shop" color="237,199,255" layer="4.00" x="235.50" y="532.15"/>
    <poi id="683102943" type="amenity" color="237,199,199" layer="4.00" x="307.85" y="544.38"/>
    <poi id="683102944" type="shop" color="237,199,255" layer="4.00" x="277.35" y="561.62"/>
</additional>
