<configuration>
   <input>
       <net-file value="map.net.xml"/>
       <route-files value="map.rou.xml"/>
    </input>
    <time>
        <begin value="0"/>
        <end value="100"/>
        <step-length value="1"/>
    </time>
</configuration>
