<?xml version="1.0" encoding="UTF-8"?>

<!-- generated on Sat Oct 19 15:03:43 2019 by SUMO polyconvert Version 0.32.0
<?xml version="1.0" encoding="UTF-8"?>

<configuration xmlns:xsi="http://www.w3.org/2001/XMLSchema-instance" xsi:noNamespaceSchemaLocation="http://sumo.dlr.de/xsd/polyconvertConfiguration.xsd">

    <input>
        <net-file value="1/map.net.xml"/>
        <osm-files value="1/map.osm"/>
        <type-file value="/home/rd/Downloads/sumo-0.32.0/data/typemap/osmPolyconvert.typ.xml"/>
    </input>

    <output>
        <output-file value="1/map.typ.xml"/>
    </output>

    <processing>
        <poi-layer-offset value="5"/>
    </processing>

</configuration>
-->

<additional xmlns:xsi="http://www.w3.org/2001/XMLSchema-instance" xsi:noNamespaceSchemaLocation="http://sumo.dlr.de/xsd/additional_file.xsd">
    <location netOffset="-352932.00,-5259715.56" convBoundary="-1131.84,-989.90,2606.94,2843.99" origBoundary="19.023994,47.463971,19.081823,47.500419" projParameter="+proj=utm +zone=34 +ellps=WGS84 +datum=WGS84 +units=m +no_defs"/>

    <poly id="104335076" type="building" color="255,230,230" fill="1" layer="-1.00" shape="532.14,161.46 533.01,163.54 518.24,170.40 520.38,172.93 512.20,180.64 506.03,173.92 498.76,164.06 527.41,150.78 528.35,152.97 529.62,152.19 535.37,158.78 533.39,160.60 532.14,161.46"/>
    <poly id="117172013" type="building" color="255,230,230" fill="1" layer="-1.00" shape="81.78,206.06 126.87,194.21 127.25,195.81 132.18,194.65 157.26,187.68 158.11,187.25 158.78,186.56 159.27,185.96 159.79,185.03 160.14,184.20 160.48,183.43 160.55,182.47 160.44,181.60 148.87,134.09 113.58,143.60 109.78,130.02 142.92,121.38 134.82,89.32 119.37,93.25 117.70,87.35 111.83,67.23 127.57,63.05 116.79,21.81 109.01,24.11 106.18,11.66 107.68,11.26 97.24,-28.99 40.60,-14.30 45.40,-9.09 36.02,-2.67 28.43,2.81 27.28,-1.85 26.93,-3.26 19.01,-1.07 -3.38,5.13 -2.88,7.01 15.40,76.02 24.49,73.50 33.66,106.69 35.83,114.43 26.10,117.11 38.40,160.81 58.39,162.26 58.32,159.35 64.53,159.50 71.41,159.62 70.26,162.42 81.78,206.06"/>
    <poly id="117172013#1" type="shop" color="237,199,255" fill="1" layer="-1.00" shape="81.78,206.06 126.87,194.21 127.25,195.81 132.18,194.65 157.26,187.68 158.11,187.25 158.78,186.56 159.27,185.96 159.79,185.03 160.14,184.20 160.48,183.43 160.55,182.47 160.44,181.60 148.87,134.09 113.58,143.60 109.78,130.02 142.92,121.38 134.82,89.32 119.37,93.25 117.70,87.35 111.83,67.23 127.57,63.05 116.79,21.81 109.01,24.11 106.18,11.66 107.68,11.26 97.24,-28.99 40.60,-14.30 45.40,-9.09 36.02,-2.67 28.43,2.81 27.28,-1.85 26.93,-3.26 19.01,-1.07 -3.38,5.13 -2.88,7.01 15.40,76.02 24.49,73.50 33.66,106.69 35.83,114.43 26.10,117.11 38.40,160.81 58.39,162.26 58.32,159.35 64.53,159.50 71.41,159.62 70.26,162.42 81.78,206.06"/>
    <poly id="128566792" type="building" color="255,230,230" fill="1" layer="-1.00" shape="395.82,173.60 470.65,139.43 465.20,120.35 463.60,107.36 463.44,100.18 463.73,91.92 464.28,80.68 467.90,63.74 467.84,62.64 467.57,61.63 467.00,60.84 355.91,-15.25 347.55,-3.89 354.49,28.06 368.58,25.76 363.92,9.81 365.99,8.36 371.39,12.00 369.91,13.77 451.63,69.12 449.24,79.41 448.34,91.35 448.23,99.81 448.80,108.49 450.93,123.46 452.30,131.22 404.56,152.73 403.82,149.24 391.58,151.94 395.82,173.60"/>
    <poly id="128598653" type="building" color="255,230,230" fill="1" layer="-1.00" shape="406.54,262.09 402.89,246.37 418.24,242.92 418.75,246.30 420.92,246.06 422.02,251.57 420.57,251.67 421.13,254.46 420.18,254.74 421.04,258.81 406.54,262.09"/>
    <poly id="137566949" type="building" color="255,230,230" fill="1" layer="-1.00" shape="305.35,407.36 319.22,458.35 304.48,463.54 290.52,412.65 293.13,411.45 305.35,407.36"/>
    <poly id="137566951" type="building" color="255,230,230" fill="1" layer="-1.00" shape="305.35,407.36 298.73,383.71 266.27,395.74 269.92,411.50 274.82,410.05 274.43,408.87 278.42,407.44 279.10,409.37 279.39,409.86 279.93,410.34 280.57,410.78 281.29,410.89 282.61,410.58 284.32,409.90 285.44,409.39 285.77,408.82 286.00,408.04 285.94,407.06 285.12,404.96 291.16,402.84 293.13,411.45 305.35,407.36"/>
    <poly id="137566955" type="building" color="255,230,230" fill="1" layer="-1.00" shape="266.27,395.74 238.34,407.00 244.46,435.12 246.43,436.23 264.45,432.07 266.52,439.88 267.11,439.42 274.11,435.68 272.83,429.24 270.95,429.99 269.72,425.80 272.38,425.31 269.92,411.50 266.27,395.74"/>
    <poly id="137570751" type="building" color="255,230,230" fill="1" layer="-1.00" shape="250.88,462.23 247.31,446.60 248.63,445.27 266.65,440.70 266.52,439.88 267.11,439.42 272.54,448.27 276.17,455.62 274.35,456.09 274.37,456.78 270.95,457.97 269.91,453.68 261.15,455.85 262.22,459.90 250.88,462.23"/>
    <poly id="137570812" type="building" color="255,230,230" fill="1" layer="-1.00" shape="253.04,413.80 262.45,411.52 264.59,420.74 254.75,423.55 253.04,413.80"/>
    <poly id="137572936" type="building" color="255,230,230" fill="1" layer="-1.00" shape="503.55,348.80 502.52,359.85 500.76,377.13 497.21,376.22 495.65,376.81 495.31,378.27 492.05,377.32 480.33,374.82 480.62,373.29 478.18,372.86 477.89,374.33 463.72,371.03 464.33,365.39 469.37,365.84 469.87,359.95 468.58,359.85 469.46,353.08 470.54,353.37 470.90,351.23 470.51,351.17 471.36,346.07 471.70,344.02 479.14,344.65 479.16,345.60 485.76,346.27 486.91,345.50 494.86,346.39 495.87,347.64 503.55,348.80"/>
    <poly id="137572971" type="building" color="255,230,230" fill="1" layer="-1.00" shape="464.33,365.39 460.08,364.71 459.31,363.91 459.85,360.72 460.77,360.81 461.83,353.28 460.66,353.05 461.28,344.55 461.33,343.91 427.58,339.62 425.75,341.53 426.71,362.48 458.70,369.88 461.56,370.53 463.72,371.03 464.33,365.39"/>
    <poly id="137572973" type="building" color="255,230,230" fill="1" layer="-1.00" shape="483.80,368.18 492.93,370.48 493.54,370.15 494.25,361.97 485.23,360.89 484.74,365.96 483.93,365.88 483.80,368.18"/>
    <poly id="137572998" type="building" color="255,230,230" fill="1" layer="-1.00" shape="439.89,360.15 442.50,360.33 442.87,361.27 446.74,361.74 446.92,358.89 446.17,358.48 446.46,356.21 438.56,355.04 438.73,358.69 439.89,360.15"/>
    <poly id="137963263" type="building" color="255,230,230" fill="1" layer="-1.00" shape="266.44,380.48 255.14,347.85 258.40,347.81 261.78,348.17 264.78,348.71 267.55,349.69 270.14,351.09 272.83,352.47 275.75,355.11 277.35,354.30 284.19,373.62 266.44,380.48"/>
    <poly id="148240296" type="building" color="255,230,230" fill="1" layer="-1.00" shape="197.69,478.98 198.67,477.93 196.66,475.86 197.98,474.43 192.42,465.25 179.45,444.66 163.17,454.71 174.95,473.16 176.76,475.36 178.36,476.87 188.14,485.30 189.80,484.01 192.03,485.75 197.69,478.98"/>
    <poly id="148241053" type="building" color="255,230,230" fill="1" layer="-1.00" shape="237.18,467.92 232.71,449.49 211.68,454.36 213.17,460.54 216.52,459.93 218.47,466.06 204.23,469.70 205.47,475.45 237.18,467.92"/>
    <poly id="148241054" type="building" color="255,230,230" fill="1" layer="-1.00" shape="211.63,447.80 218.60,446.23 216.39,436.50 207.80,441.85 211.63,447.80"/>
    <poly id="148241056" type="building" color="255,230,230" fill="1" layer="-1.00" shape="208.54,454.95 203.18,458.27 196.40,448.04 190.89,451.24 197.62,462.22 192.42,465.25 179.45,444.66 194.78,433.93 208.54,454.95"/>
    <poly id="148241059" type="building" color="255,230,230" fill="1" layer="-1.00" shape="232.71,449.49 225.51,417.75 224.64,416.50 223.28,416.05 221.97,416.20 194.78,433.93 208.54,454.95 211.31,452.89 211.33,454.43 211.68,454.36 232.71,449.49"/>
    <poly id="225279145" type="building" color="255,230,230" fill="1" layer="-1.00" shape="461.65,329.61 463.17,314.86 456.54,314.10 456.98,310.58 460.11,310.85 460.83,302.38 459.85,302.31 460.03,300.17 429.10,297.14 414.88,299.60 419.86,323.42 425.48,326.42 461.65,329.61"/>
    <poly id="226136126" type="building" color="255,230,230" fill="1" layer="-1.00" shape="507.52,422.96 526.29,427.59 536.59,390.65 528.43,388.64 526.29,394.91 514.83,392.29 507.52,422.96"/>
    <poly id="226136128" type="building" color="255,230,230" fill="1" layer="-1.00" shape="441.80,393.84 447.99,395.19 451.80,377.76 440.66,375.45 440.84,378.77 444.57,378.37 444.87,387.51 441.84,387.37 441.80,393.84"/>
    <poly id="226136129" type="building" color="255,230,230" fill="1" layer="-1.00" shape="498.54,407.96 504.33,409.32 507.29,396.81 501.50,395.46 498.54,407.96"/>
    <poly id="226136130" type="building" color="255,230,230" fill="1" layer="-1.00" shape="451.82,410.44 470.53,415.09 479.63,377.71 461.07,372.83 460.70,374.37 451.82,410.44"/>
    <poly id="226136131" type="building" color="255,230,230" fill="1" layer="-1.00" shape="462.04,397.96 468.26,399.43 470.89,388.47 464.67,386.99 462.04,397.96"/>
    <poly id="226136132" type="building" color="255,230,230" fill="1" layer="-1.00" shape="488.17,419.03 489.29,419.38 507.52,422.96 514.83,392.29 516.36,386.09 497.93,381.86 488.17,419.03"/>
    <poly id="226136133" type="building" color="255,230,230" fill="1" layer="-1.00" shape="436.15,406.78 432.48,405.66 429.36,400.83 428.78,393.98 426.71,362.48 458.70,369.88 457.61,373.68 460.70,374.37 451.82,410.44 436.15,406.78"/>
    <poly id="226136134" type="building" color="255,230,230" fill="1" layer="-1.00" shape="470.53,415.09 488.17,419.03 497.93,381.86 479.63,377.71 470.53,415.09"/>
    <poly id="226137917" type="building" color="255,230,230" fill="1" layer="-1.00" shape="332.34,315.47 332.59,315.01 332.87,314.56 336.85,313.18 337.43,311.14 335.96,306.65 334.27,305.84 330.86,307.03 329.72,306.51 327.73,301.14 340.59,296.63 348.86,293.99 351.63,301.53 353.39,301.02 354.96,305.61 352.97,306.26 355.54,313.33 350.64,315.86 348.92,314.63 347.03,315.31 347.35,316.63 334.39,320.68 332.34,315.47"/>
    <poly id="226137918" type="building" color="255,230,230" fill="1" layer="-1.00" shape="373.96,340.21 404.31,329.15 405.35,328.57 406.02,327.62 406.42,326.68 406.38,325.39 400.85,301.16 367.05,308.32 367.73,311.27 363.96,312.28 373.96,340.21"/>
    <poly id="226137920" type="building" color="255,230,230" fill="1" layer="-1.00" shape="378.63,265.45 391.87,262.53 396.38,282.77 382.67,285.81 381.69,281.38 383.54,280.97 383.22,279.52 381.28,279.95 380.13,274.81 382.11,274.37 381.74,272.70 382.90,272.44 382.16,269.11 377.90,270.05 376.95,265.82 378.63,265.45"/>
    <poly id="226137921" type="building" color="255,230,230" fill="1" layer="-1.00" shape="374.30,246.83 388.16,243.60 391.87,262.53 378.63,265.45 374.30,246.83"/>
    <poly id="226137922" type="building" color="255,230,230" fill="1" layer="-1.00" shape="351.10,264.38 357.34,262.66 351.41,245.14 345.38,247.05 351.10,264.38"/>
    <poly id="226137923" type="building" color="255,230,230" fill="1" layer="-1.00" shape="376.38,323.98 380.19,323.04 379.27,319.76 386.69,316.80 387.68,320.08 390.37,319.19 388.86,311.82 373.42,315.16 376.38,323.98"/>
    <poly id="226137924" type="building" color="255,230,230" fill="1" layer="-1.00" shape="353.43,228.83 380.18,216.60 382.42,217.99 388.16,243.60 374.30,246.83 373.71,246.97 372.94,243.68 374.38,243.35 372.26,235.45 362.56,239.72 362.40,240.33 358.08,242.26 353.43,228.83"/>
    <poly id="226137925" type="building" color="255,230,230" fill="1" layer="-1.00" shape="331.16,269.88 337.42,267.72 332.41,253.38 326.15,255.57 331.16,269.88"/>
    <poly id="226137926" type="building" color="255,230,230" fill="1" layer="-1.00" shape="346.78,272.48 354.41,270.50 367.18,268.20 353.43,228.83 333.95,237.06 346.78,272.48"/>
    <poly id="226137927" type="building" color="255,230,230" fill="1" layer="-1.00" shape="334.39,320.68 345.23,350.52 373.96,340.21 363.96,312.28 363.63,311.22 358.26,312.51 361.13,321.12 361.68,320.93 364.92,329.78 354.17,334.54 353.63,333.55 354.29,332.14 352.95,328.54 351.46,327.91 350.99,327.98 348.69,320.79 349.04,320.59 349.69,319.12 348.69,316.19 347.35,316.63 334.39,320.68"/>
    <poly id="226137928" type="building" color="255,230,230" fill="1" layer="-1.00" shape="327.73,301.14 340.59,296.63 334.33,276.84 320.88,281.45 327.73,301.14"/>
    <poly id="226137930" type="building" color="255,230,230" fill="1" layer="-1.00" shape="359.46,290.85 382.67,285.81 396.38,282.77 400.85,301.16 367.05,308.32 364.12,309.10 363.60,306.47 362.84,306.60 359.46,290.85"/>
    <poly id="226137931" type="building" color="255,230,230" fill="1" layer="-1.00" shape="365.77,296.64 381.89,293.36 383.14,297.81 366.97,301.26 365.77,296.64"/>
    <poly id="226137932" type="building" color="255,230,230" fill="1" layer="-1.00" shape="320.88,281.45 334.33,276.84 346.78,272.48 333.95,237.06 311.91,246.88 309.65,251.76 320.88,281.45"/>
    <poly id="226141948" type="building" color="255,230,230" fill="1" layer="-1.00" shape="210.66,291.68 222.32,339.96 236.12,336.99 234.43,329.92 230.61,330.49 225.01,308.03 228.57,307.28 227.99,304.45 233.13,303.40 226.23,284.49 210.66,291.68"/>
    <poly id="226141949" type="building" color="255,230,230" fill="1" layer="-1.00" shape="246.00,275.27 266.88,267.40 273.96,287.04 269.44,288.66 267.72,283.62 264.80,284.68 265.81,287.99 265.03,289.67 261.90,290.57 260.46,289.72 259.48,286.50 256.67,287.68 258.20,293.59 253.60,295.05 246.00,275.27"/>
    <poly id="226141950" type="building" color="255,230,230" fill="1" layer="-1.00" shape="279.59,325.92 286.65,323.59 301.79,366.88 284.19,373.62 277.35,354.30 279.61,353.23 279.25,352.32 282.67,351.11 283.53,353.79 283.00,353.99 283.97,356.64 285.25,356.37 285.94,358.50 287.12,358.08 286.86,357.13 289.22,356.05 289.91,357.21 290.93,356.80 288.44,349.25 287.53,349.45 279.59,325.92"/>
    <poly id="226141951" type="building" color="255,230,230" fill="1" layer="-1.00" shape="286.65,323.59 301.79,366.88 330.03,356.53 330.86,356.03 331.26,355.61 331.24,354.83 324.28,335.59 323.90,334.53 323.30,334.08 322.23,334.16 314.68,337.05 313.11,337.65 312.65,338.25 312.56,338.96 313.79,343.55 312.97,343.92 314.57,348.26 304.20,351.66 298.46,335.86 310.70,331.35 311.76,330.79 312.20,329.71 312.24,328.69 297.98,288.21 297.06,287.29 296.23,287.07 294.93,287.35 283.33,291.42 277.43,276.76 280.26,275.51 280.91,277.92 281.42,278.97 282.26,279.43 283.03,279.46 285.80,278.51 286.56,278.13 286.78,277.12 286.05,274.47 289.17,273.18 291.69,278.84 292.00,279.36 292.96,279.87 293.67,279.85 302.15,276.79 302.43,276.38 302.53,275.72 302.75,274.77 296.06,256.70 295.57,255.94 294.67,255.73 294.00,255.69 266.88,267.40 273.96,287.04 278.32,299.64 279.58,299.24 280.22,300.95 279.04,301.40 281.15,307.60 284.43,306.53 284.06,304.88 287.72,303.59 289.94,309.67 287.65,310.38 287.35,310.66 287.17,311.05 287.23,311.73 288.05,313.94 288.36,314.28 288.77,314.45 289.17,314.43 289.96,314.10 290.11,314.69 291.62,314.19 294.74,323.33 291.08,324.58 290.10,322.42 286.65,323.59"/>
    <poly id="226141952" type="building" color="255,230,230" fill="1" layer="-1.00" shape="248.91,296.74 247.44,292.73 244.42,293.78 245.43,297.02 244.57,298.49 241.45,299.33 240.27,298.56 239.14,295.52 236.24,296.52 237.77,302.07 233.28,303.90 233.13,303.40 226.23,284.49 246.00,275.27 253.60,295.05 248.91,296.74"/>
    <poly id="226141953" type="building" color="255,230,230" fill="1" layer="-1.00" shape="234.47,392.15 266.44,380.48 255.14,347.85 243.82,350.36 244.35,352.66 241.23,353.27 238.34,340.20 236.82,340.43 236.12,336.99 222.32,339.96 234.47,392.15"/>
    <poly id="226144351" type="leisure" color="207,245,201" fill="1" layer="-2.00" shape="439.25,295.74 464.57,298.06 465.89,277.96 466.09,274.71 445.33,275.02 442.19,283.18 435.35,283.54 436.61,288.90 438.94,288.74 439.25,295.74"/>
    <poly id="226144353" type="building" color="255,230,230" fill="1" layer="-1.00" shape="444.07,262.84 455.87,263.01 456.15,243.66 444.35,243.50 444.07,262.84"/>
    <poly id="226145955" type="building" color="255,230,230" fill="1" layer="-1.00" shape="60.55,415.95 59.00,415.20 59.56,414.37 55.44,412.29 55.01,413.15 52.87,411.78 58.89,400.68 64.47,400.83 67.19,404.48 60.55,415.95"/>
    <poly id="226145957" type="building" color="255,230,230" fill="1" layer="-1.00" shape="132.89,423.90 130.18,428.70 112.31,460.39 99.86,453.52 119.28,419.17 121.10,416.53 131.82,423.22 132.89,423.90"/>
    <poly id="226145959" type="building" color="255,230,230" fill="1" layer="-1.00" shape="168.67,311.31 197.40,298.95 204.53,327.77 191.19,331.18 188.02,317.58 179.87,321.12 183.52,329.00 183.90,328.89 185.23,332.80 180.24,333.71 179.36,331.44 178.42,331.98 176.61,328.30 168.67,311.31"/>
    <poly id="226145961" type="building" color="255,230,230" fill="1" layer="-1.00" shape="148.02,320.68 168.67,311.31 176.61,328.30 170.74,330.65 169.11,327.30 166.85,328.27 167.30,329.35 162.61,331.23 162.10,330.06 158.74,331.43 159.95,334.17 154.63,336.36 148.02,320.68"/>
    <poly id="226145963" type="building" color="255,230,230" fill="1" layer="-1.00" shape="119.78,415.25 121.85,412.11 143.80,400.21 123.67,362.68 97.49,376.36 102.74,387.24 108.06,377.68 113.79,374.04 125.80,395.81 123.81,397.00 122.06,393.99 109.90,401.13 119.78,415.25"/>
    <poly id="226145965" type="building" color="255,230,230" fill="1" layer="-1.00" shape="102.83,401.33 95.94,397.40 96.14,396.66 96.13,396.01 95.70,395.29 95.00,394.83 94.20,394.72 93.49,394.89 92.87,395.28 91.25,394.42 88.10,394.41 86.44,397.29 83.21,395.45 83.20,394.10 81.17,394.15 77.98,399.95 60.09,431.20 79.89,442.72 102.83,401.33"/>
    <poly id="226145967" type="building" color="255,230,230" fill="1" layer="-1.00" shape="204.53,327.77 191.19,331.18 185.23,332.80 185.30,335.25 180.17,336.62 187.87,353.89 190.17,353.60 190.98,356.78 196.11,355.98 210.21,352.27 204.53,327.77"/>
    <poly id="226145969" type="building" color="255,230,230" fill="1" layer="-1.00" shape="110.97,340.41 123.67,362.68 97.49,376.36 85.55,349.56 108.01,339.40 110.97,340.41"/>
    <poly id="226145971" type="building" color="255,230,230" fill="1" layer="-1.00" shape="141.34,345.67 137.75,339.60 147.28,334.82 149.99,340.48 143.73,343.81 143.98,344.32 141.34,345.67"/>
    <poly id="226145973" type="building" color="255,230,230" fill="1" layer="-1.00" shape="122.61,332.25 148.02,320.68 154.63,336.36 156.59,340.88 153.79,342.29 154.92,345.13 151.42,347.12 142.83,351.71 141.71,350.05 139.69,351.17 140.65,353.05 132.95,357.40 121.26,336.00 122.61,332.25"/>
    <poly id="226145975" type="building" color="255,230,230" fill="1" layer="-1.00" shape="41.60,405.51 39.44,404.75 39.21,403.48 36.10,401.79 34.24,402.12 33.28,401.75 36.46,386.09 38.69,386.73 42.20,385.35 42.88,383.49 44.82,382.76 48.31,392.17 45.91,393.11 44.86,398.09 45.50,398.74 41.60,405.51"/>
    <poly id="226145977" type="building" color="255,230,230" fill="1" layer="-1.00" shape="29.50,374.61 44.46,367.81 55.86,393.17 53.89,396.17 40.29,420.57 32.33,416.43 21.98,411.13 20.14,409.49 19.54,407.93 19.39,406.10 24.13,380.48 24.91,377.31 26.16,375.57 29.50,374.61"/>
    <poly id="226145978" type="building" color="255,230,230" fill="1" layer="-1.00" shape="60.57,386.17 84.99,376.34 86.97,380.88 91.02,379.13 85.00,365.62 77.19,369.51 78.59,372.66 77.96,374.08 74.84,375.59 73.05,374.79 71.79,372.10 56.97,378.46 60.57,386.17"/>
    <poly id="226145980" type="building" color="255,230,230" fill="1" layer="-1.00" shape="196.11,355.98 210.21,352.27 215.43,376.31 201.95,379.82 196.11,355.98"/>
    <poly id="226145987" type="building" color="255,230,230" fill="1" layer="-1.00" shape="160.68,407.01 186.18,393.16 180.92,384.83 174.65,375.35 171.80,376.71 164.63,363.93 166.59,362.72 162.67,354.86 157.07,357.45 151.42,347.12 142.83,351.71 140.65,353.05 132.95,357.40 135.70,361.72 141.79,358.51 145.14,364.24 142.31,365.89 146.84,373.75 156.37,368.54 163.47,381.49 153.98,386.81 158.55,395.01 161.70,393.18 164.48,398.99 158.36,402.49 160.68,407.01"/>
    <poly id="226145990" type="building" color="255,230,230" fill="1" layer="-1.00" shape="81.76,425.98 78.88,424.16 79.49,422.98 76.68,421.35 76.02,422.51 73.15,420.87 78.30,411.44 79.51,410.93 80.74,408.75 80.64,407.37 82.63,404.55 90.23,408.46 91.09,410.07 89.58,412.62 88.53,412.94 87.29,414.97 87.52,416.63 81.76,425.98"/>
    <poly id="226145993" type="amenity" color="237,199,199" fill="1" layer="-1.00" shape="143.78,449.63 164.51,436.30 151.01,415.44 130.18,428.70 143.78,449.63"/>
    <poly id="226145993#1" type="building" color="255,230,230" fill="1" layer="-1.00" shape="143.78,449.63 164.51,436.30 151.01,415.44 130.18,428.70 143.78,449.63"/>
    <poly id="226145995" type="building" color="255,230,230" fill="1" layer="-1.00" shape="94.86,450.85 97.63,445.72 88.09,440.69 84.72,445.35 79.89,442.72 102.83,401.33 109.90,401.13 119.78,415.25 117.89,418.63 119.28,419.17 99.86,453.52 94.86,450.85"/>
    <poly id="226145999" type="building" color="255,230,230" fill="1" layer="-1.00" shape="101.04,366.92 108.43,362.81 104.51,355.23 102.80,355.92 103.54,357.65 97.97,360.00 101.04,366.92"/>
    <poly id="226146000" type="building" color="255,230,230" fill="1" layer="-1.00" shape="96.37,427.47 98.09,428.45 98.61,427.46 102.87,429.88 102.45,430.61 104.03,431.48 112.32,416.79 110.18,413.30 108.94,412.58 104.76,412.74 96.37,427.47"/>
    <poly id="226146006" type="building" color="255,230,230" fill="1" layer="-1.00" shape="200.02,414.45 218.80,401.88 219.80,400.56 220.01,399.55 220.08,398.45 215.43,376.31 201.95,379.82 180.92,384.83 186.18,393.16 200.02,414.45"/>
    <poly id="226146008" type="building" color="255,230,230" fill="1" layer="-1.00" shape="198.73,398.65 205.51,394.19 203.62,386.97 193.69,389.38 192.82,389.79 198.73,398.65"/>
    <poly id="226146009" type="building" color="255,230,230" fill="1" layer="-1.00" shape="44.46,367.81 85.55,349.56 97.49,376.36 102.74,387.24 93.37,391.84 90.48,390.66 88.77,387.40 86.61,388.56 86.83,389.06 78.32,392.50 78.39,394.10 74.23,393.92 70.06,393.81 68.72,390.29 65.48,391.63 66.55,393.64 60.43,393.41 59.51,391.44 58.35,391.91 59.08,393.45 57.29,393.41 55.86,393.17 44.46,367.81"/>
    <poly id="226146011" type="building" color="255,230,230" fill="1" layer="-1.00" shape="77.98,399.95 74.23,393.92 70.06,393.81 66.55,393.64 60.43,393.41 59.08,393.45 57.29,393.41 55.57,397.12 53.89,396.17 40.29,420.57 60.09,431.20 77.98,399.95"/>
    <poly id="226151086" type="building" color="255,230,230" fill="1" layer="-1.00" shape="111.66,276.58 117.06,274.00 120.25,280.09 136.61,273.03 142.87,286.66 120.75,296.59 111.66,276.58"/>
    <poly id="226151087" type="building" color="255,230,230" fill="1" layer="-1.00" shape="76.42,302.54 86.23,298.01 80.82,283.68 69.42,288.80 76.42,302.54"/>
    <poly id="226151089" type="building" color="255,230,230" fill="1" layer="-1.00" shape="97.74,242.59 97.92,240.22 99.45,238.86 98.23,235.04 95.26,224.34 79.30,228.30 82.30,240.31 82.98,242.94 84.94,242.61 85.92,244.83 86.62,245.34 87.56,245.57 97.74,242.59"/>
    <poly id="226151092" type="building" color="255,230,230" fill="1" layer="-1.00" shape="160.92,207.99 161.25,209.35 165.74,227.81 179.84,224.58 175.12,204.46 160.92,207.99"/>
    <poly id="226151093" type="building" color="255,230,230" fill="1" layer="-1.00" shape="33.87,240.39 48.28,273.07 59.84,268.17 51.42,248.33 82.30,240.31 79.30,228.30 33.87,240.39"/>
    <poly id="226151094" type="building" color="255,230,230" fill="1" layer="-1.00" shape="98.16,305.92 120.75,296.59 111.66,276.58 106.04,264.01 103.39,265.21 101.79,261.05 84.66,268.29 86.23,271.69 83.18,273.31 83.92,274.70 98.16,305.92"/>
    <poly id="226151095" type="building" color="255,230,230" fill="1" layer="-1.00" shape="248.10,123.60 235.96,127.80 230.11,129.83 253.47,197.06 257.93,195.53 257.42,194.05 260.67,192.92 260.41,192.17 269.57,189.01 264.13,173.35 265.26,172.97 248.10,123.60"/>
    <poly id="226151097" type="building" color="255,230,230" fill="1" layer="-1.00" shape="188.57,194.29 203.67,190.59 204.41,190.42 201.20,177.33 200.39,177.56 185.54,181.13 188.57,194.29"/>
    <poly id="226151098" type="building" color="255,230,230" fill="1" layer="-1.00" shape="165.58,276.71 188.49,266.78 189.47,265.81 189.92,264.84 190.08,263.71 189.98,262.49 186.77,248.20 184.69,248.48 183.92,244.30 168.43,248.19 169.54,252.01 172.28,251.76 173.29,256.60 163.71,261.41 162.85,259.83 158.67,261.64 165.58,276.71"/>
    <poly id="226151099" type="building" color="255,230,230" fill="1" layer="-1.00" shape="176.20,142.43 185.54,181.13 200.39,177.56 199.13,172.35 194.65,173.43 191.38,159.88 193.14,159.44 193.61,161.38 199.26,160.01 197.97,154.65 192.18,156.04 192.60,157.76 191.04,158.13 187.76,144.54 192.16,143.49 191.04,138.87 176.20,142.43"/>
    <poly id="226151100" type="building" color="255,230,230" fill="1" layer="-1.00" shape="99.66,292.24 109.10,287.99 100.41,268.78 90.97,273.03 99.66,292.24"/>
    <poly id="226151101" type="building" color="255,230,230" fill="1" layer="-1.00" shape="70.71,317.63 98.16,305.92 83.92,274.70 75.45,278.49 72.77,273.57 67.18,276.15 62.55,267.18 59.84,268.17 48.28,273.07 70.71,317.63"/>
    <poly id="226151102" type="building" color="255,230,230" fill="1" layer="-1.00" shape="136.61,273.03 137.68,272.53 136.98,270.83 158.28,260.92 158.67,261.64 165.58,276.71 142.87,286.66 136.61,273.03"/>
    <poly id="226151103" type="building" color="255,230,230" fill="1" layer="-1.00" shape="299.88,211.15 305.83,208.67 304.68,204.73 309.74,202.50 310.54,204.25 312.58,203.34 312.78,203.91 317.10,201.49 315.09,196.98 311.48,198.63 309.18,192.81 315.94,190.46 316.22,191.71 321.88,189.68 319.60,181.34 293.25,190.59 299.88,211.15"/>
    <poly id="226151104" type="building" color="255,230,230" fill="1" layer="-1.00" shape="141.36,211.56 95.26,224.34 98.23,235.04 127.67,226.97 129.35,232.28 137.86,230.14 136.80,225.80 133.73,226.76 133.26,225.22 144.43,222.24 141.60,212.40 141.36,211.56"/>
    <poly id="226151105" type="building" color="255,230,230" fill="1" layer="-1.00" shape="168.43,248.19 183.92,244.30 179.84,224.58 165.74,227.81 167.54,236.45 166.95,236.53 167.49,239.18 168.44,238.86 169.15,243.23 167.73,244.04 168.43,248.19"/>
    <poly id="226151106" type="building" color="255,230,230" fill="1" layer="-1.00" shape="364.58,182.49 369.47,180.30 368.21,175.53 369.15,175.19 365.90,159.16 358.58,160.97 358.88,162.67 344.18,166.08 343.97,165.31 337.43,166.70 339.54,175.03 346.07,173.57 345.92,172.68 352.35,171.29 353.75,177.58 350.82,178.35 351.08,181.13 350.23,181.49 352.27,185.78 358.92,182.73 358.15,181.02 363.07,178.92 364.58,182.49"/>
    <poly id="226151108" type="building" color="255,230,230" fill="1" layer="-1.00" shape="211.97,239.39 205.73,210.82 211.11,209.50 222.04,234.97 211.97,239.39"/>
    <poly id="226151109" type="building" color="255,230,230" fill="1" layer="-1.00" shape="254.53,235.74 205.33,258.28 203.66,257.55 203.15,256.80 191.97,206.74 206.18,203.45 214.97,201.36 227.35,230.02 247.67,221.08 254.53,235.74"/>
    <poly id="226405722" type="building" color="255,230,230" fill="1" layer="-1.00" shape="551.42,275.01 569.09,275.31 569.25,262.73 569.34,256.01 572.76,250.39 515.92,212.00 510.65,208.44 495.15,231.21 504.72,237.64 510.56,229.20 512.55,226.71 516.96,225.69 557.89,253.23 557.90,256.31 551.51,256.79 551.42,275.01"/>
    <poly id="32800778" type="commercial" color="209,209,204" fill="1" layer="-3.00" shape="-4.81,120.52 7.07,117.39 20.35,167.43 34.60,220.88 37.28,233.31 47.21,230.09 85.79,218.95 134.86,205.04 175.57,192.97 181.07,186.80 173.38,159.74 155.71,88.12 135.01,5.48 132.57,-14.83 129.46,-21.87 124.99,-25.24 119.45,-26.57 117.98,-33.55 117.90,-41.33 118.63,-49.93 109.02,-47.89 88.26,-43.77 58.13,-37.27 51.37,-35.81 28.20,-31.76 -21.65,-24.32 -31.50,-22.61 -38.73,-21.36 -115.53,-6.28 -113.34,10.56 -111.51,16.55 -109.15,24.13 -90.56,94.30 -60.21,86.36 -52.60,84.26 -17.14,75.69 -16.80,76.93 -9.54,103.34 -4.81,120.52"/>
    <poly id="32800780" type="amenity" color="237,199,199" fill="1" layer="-1.00" shape="-63.95,194.92 -50.67,242.31 -48.99,241.92 -44.46,240.81 -44.05,242.20 18.37,225.42 34.60,220.88 20.35,167.43 -11.51,176.16 -12.04,173.39 -64.78,187.84 -63.01,194.67 -63.95,194.92"/>
    <poly id="32801239" type="amenity" color="237,199,199" fill="1" layer="-1.00" shape="512.80,202.44 587.22,253.13 587.30,280.97 568.98,279.91 546.89,278.89 546.70,288.13 510.00,287.53 508.10,287.53 504.78,287.50 505.07,277.97 481.34,261.50 480.59,260.36 479.97,259.16 478.74,256.47 478.32,254.90 478.52,253.31 479.16,251.70 480.62,249.37 509.33,207.50 512.80,202.44"/>
    <poly id="32801240" type="tourism" color="207,245,201" fill="1" layer="-2.00" shape="424.58,226.02 426.95,240.15 418.24,242.92 418.75,246.30 420.92,246.06 422.02,251.57 420.57,251.67 421.13,254.46 420.18,254.74 421.04,258.81 429.10,297.14 460.03,300.17 464.83,300.72 470.91,254.37 477.55,245.29 508.63,199.83 498.08,186.10 487.19,191.55 484.32,205.22 442.20,223.50 440.06,218.88 424.58,226.02"/>
    <poly id="37975767" type="building" color="255,230,230" fill="1" layer="-1.00" shape="502.52,359.85 503.55,348.80 562.25,354.67 560.98,365.97 542.36,363.80 541.92,367.11 546.09,367.48 545.78,370.96 541.63,370.65 537.91,370.85 537.63,367.44 539.45,367.23 539.70,363.69 518.57,361.62 518.44,364.60 522.61,364.97 522.55,368.48 518.36,368.25 514.56,368.28 514.19,364.97 516.05,364.88 516.05,361.41 502.52,359.85"/>
    <poly id="38147527" type="building" color="255,230,230" fill="1" layer="-1.00" shape="492.44,295.00 491.76,330.12 481.75,330.21 481.63,328.91 477.23,328.64 477.49,315.91 477.96,315.88 478.37,307.89 473.33,307.53 473.55,299.39 474.95,298.26 478.28,298.37 478.39,295.14 492.44,295.00"/>
    <poly id="458919961" type="building" color="255,230,230" fill="1" layer="-1.00" shape="479.60,403.40 485.14,404.88 488.51,392.39 482.97,390.90 479.60,403.40"/>
    <poly id="459196859" type="leisure" color="207,245,201" fill="1" layer="-2.00" shape="-33.59,220.80 5.92,210.48 0.91,191.38 -38.60,201.70 -33.59,220.80"/>
    <poly id="459196859#1" type="sport" color="79,230,125" fill="1" layer="-2.00" shape="-33.59,220.80 5.92,210.48 0.91,191.38 -38.60,201.70 -33.59,220.80"/>
    <poly id="464350924" type="building" color="255,230,230" fill="1" layer="-1.00" shape="429.08,312.00 429.60,305.18 445.16,306.75 444.23,313.59 429.08,312.00"/>