<?xml version="1.0" encoding="UTF-8"?>

<!-- generated on Sat May 25 20:37:55 2019 by SUMO duarouter Version 0.32.0
<?xml version="1.0" encoding="UTF-8"?>

<configuration xmlns:xsi="http://www.w3.org/2001/XMLSchema-instance" xsi:noNamespaceSchemaLocation="http://sumo.dlr.de/xsd/duarouterConfiguration.xsd">

    <input>
        <net-file value="4/map.net.xml"/>
        <route-files value="4/map.trips.xml"/>
    </input>

    <output>
        <output-file value="4/map.rou.xml"/>
        <alternatives-output value="4/map.rou.alt.xml"/>
    </output>

    <processing>
        <ignore-errors value="true"/>
    </processing>

    <time>
        <begin value="0"/>
        <end value="12.0"/>
    </time>

    <report>
        <no-warnings value="true"/>
        <no-step-log value="true"/>
    </report>

</configuration>
-->

<routes xmlns:xsi="http://www.w3.org/2001/XMLSchema-instance" xsi:noNamespaceSchemaLocation="http://sumo.dlr.de/xsd/routes_file.xsd">
    <vehicle id="0" depart="0.00">
        <route edges="238184611#1 238184611#2 238184611#3 239281168 238184616#0"/>
    </vehicle>
    <vehicle id="1" depart="0.00">
        <route edges="295484306#1 238184611#1 238184611#2 592321939#1"/>
    </vehicle>
    <vehicle id="2" depart="0.00">
        <route edges="165691568 165691556 165691540 238184611#0 238184611#1 238184611#2 592321939#1 25444187#1 317434805 239281169 243417076"/>
    </vehicle>
    <vehicle id="4" depart="0.00">
        <route edges="330663293#0 317434805 239281169 243417076 239281168 238184616#0 238184616#1 238184616#2 54110330#0 24251022"/>
    </vehicle>
    <vehicle id="5" depart="0.00">
        <route edges="288069909 25444187#0 25444187#1 317434805 239281169 243417076 239281168 238184616#0 592321939#0"/>
    </vehicle>
    <vehicle id="6" depart="0.00">
        <route edges="330663293#0 317434805 239281169 243417076 239281168"/>
    </vehicle>
    <vehicle id="8" depart="0.00">
        <route edges="239281169 243417076 239281168 293201851 243417077#1"/>
    </vehicle>
    <vehicle id="9" depart="0.00">
        <route edges="54110330#0 24251125 330663293#0 317434805 239281169 243417076 239281168 293201851 295484306#1 238184611#1"/>
    </vehicle>
    <vehicle id="10" depart="0.00">
        <route edges="238184611#3 239281168 293201851 295484306#1"/>
    </vehicle>
    <vehicle id="11" depart="0.00">
        <route edges="295484306#0 295484306#1 238184611#1 238184611#2 238184611#3"/>
    </vehicle>
</routes>
