<?xml version="1.0" encoding="UTF-8"?>

<!-- generated on Sat May 25 20:37:53 2019 by SUMO polyconvert Version 0.32.0
<?xml version="1.0" encoding="UTF-8"?>

<configuration xmlns:xsi="http://www.w3.org/2001/XMLSchema-instance" xsi:noNamespaceSchemaLocation="http://sumo.dlr.de/xsd/polyconvertConfiguration.xsd">

    <input>
        <net-file value="4/map.net.xml"/>
        <osm-files value="4/map.osm"/>
        <type-file value="/home/rd/Downloads/sumo-0.32.0/data/typemap/osmPolyconvert.typ.xml"/>
    </input>

    <output>
        <output-file value="4/map.typ.xml"/>
    </output>

    <processing>
        <poi-layer-offset value="5"/>
    </processing>

</configuration>
-->

<additional xmlns:xsi="http://www.w3.org/2001/XMLSchema-instance" xsi:noNamespaceSchemaLocation="http://sumo.dlr.de/xsd/additional_file.xsd">
    <location netOffset="-355131.46,-5262247.72" convBoundary="-3902.73,-3545.69,2041.61,1255.34" origBoundary="19.023213,47.463971,19.103538,47.509019" projParameter="+proj=utm +zone=34 +ellps=WGS84 +datum=WGS84 +units=m +no_defs"/>

    <poly id="105934993" type="building" color="255,230,230" fill="1" layer="-1.00" shape="339.45,305.45 320.16,292.41 310.23,307.73 329.81,320.33 339.45,305.45"/>
    <poly id="105934994" type="building" color="255,230,230" fill="1" layer="-1.00" shape="281.85,307.72 277.87,313.84 274.56,318.77 273.15,321.43 260.44,312.53 262.25,309.76 276.14,288.34 287.26,271.20 300.16,279.51 286.25,300.94 282.34,298.42 288.58,288.80 284.72,286.32 274.09,302.70 281.85,307.72"/>
    <poly id="105935000" type="building" color="255,230,230" fill="1" layer="-1.00" shape="251.88,354.69 271.84,366.10 294.69,331.82 274.56,318.77 273.15,321.43 271.02,324.36 251.88,354.69"/>
    <poly id="105935001" type="building" color="255,230,230" fill="1" layer="-1.00" shape="285.38,359.64 294.05,347.33 301.79,352.37 293.89,364.76 293.30,364.41 293.87,361.98 293.43,360.25 292.23,358.73 289.59,358.50 287.62,359.13 286.28,360.18 285.38,359.64"/>
    <poly id="105935005" type="building" color="255,230,230" fill="1" layer="-1.00" shape="359.66,357.32 391.38,376.03 407.75,349.27 377.24,329.82 359.66,357.32"/>
    <poly id="105935013" type="building" color="255,230,230" fill="1" layer="-1.00" shape="294.69,331.82 314.88,344.90 291.48,379.15 271.84,366.10 294.69,331.82"/>
    <poly id="105935015" type="building" color="255,230,230" fill="1" layer="-1.00" shape="242.69,280.62 244.42,292.96 240.59,296.86 229.33,290.16 233.47,281.92 242.69,280.62"/>
    <poly id="105935016" type="building" color="255,230,230" fill="1" layer="-1.00" shape="233.50,343.00 251.88,354.69 271.02,324.36 269.75,320.78 256.91,313.38 250.20,314.63 233.50,343.00"/>
    <poly id="105935020" type="building" color="255,230,230" fill="1" layer="-1.00" shape="357.60,316.74 377.24,329.82 359.66,357.32 354.18,365.74 349.26,363.38 350.74,360.76 346.89,358.19 345.85,359.94 342.69,358.03 343.80,356.15 339.08,353.01 337.67,356.21 333.34,353.13 335.08,350.90 357.60,316.74"/>
    <poly id="105935020#1" type="tourism" color="207,245,201" fill="1" layer="-2.00" shape="357.60,316.74 377.24,329.82 359.66,357.32 354.18,365.74 349.26,363.38 350.74,360.76 346.89,358.19 345.85,359.94 342.69,358.03 343.80,356.15 339.08,353.01 337.67,356.21 333.34,353.13 335.08,350.90 357.60,316.74"/>
    <poly id="105935025" type="building" color="255,230,230" fill="1" layer="-1.00" shape="320.16,292.41 300.16,279.51 286.25,300.94 281.85,307.72 277.87,313.84 297.60,326.56 305.28,314.75 299.94,311.32 297.92,314.42 288.58,308.39 296.19,296.65 304.93,302.30 304.01,303.72 310.23,307.73 320.16,292.41"/>
    <poly id="105935030" type="building" color="255,230,230" fill="1" layer="-1.00" shape="231.38,323.78 238.00,312.98 243.00,316.03 236.38,326.82 231.38,323.78"/>
    <poly id="105935032" type="building" color="255,230,230" fill="1" layer="-1.00" shape="247.03,265.60 224.83,269.13 211.16,288.01 235.05,301.61 247.39,308.37 253.66,303.42 248.85,275.86 247.03,265.60"/>
    <poly id="105935033" type="building" color="255,230,230" fill="1" layer="-1.00" shape="216.73,332.77 233.50,343.00 250.20,314.63 248.38,309.73 247.39,308.37 235.05,301.61 216.73,332.77"/>
    <poly id="105935035" type="building" color="255,230,230" fill="1" layer="-1.00" shape="375.71,348.86 372.28,354.91 383.77,361.39 387.20,355.34 375.71,348.86"/>
    <poly id="105935038" type="building" color="255,230,230" fill="1" layer="-1.00" shape="272.96,333.98 281.09,338.64 273.91,350.96 273.64,347.94 272.91,345.94 270.63,344.52 268.26,344.64 264.92,346.32 272.96,333.98"/>
    <poly id="105935039" type="building" color="255,230,230" fill="1" layer="-1.00" shape="291.48,379.15 290.66,380.90 310.09,392.73 333.40,358.74 332.99,356.63 314.88,344.90 291.48,379.15"/>
    <poly id="105935041" type="building" color="255,230,230" fill="1" layer="-1.00" shape="317.60,339.17 335.08,350.90 357.60,316.74 339.45,305.45 329.81,320.33 317.60,339.17"/>
    <poly id="105935043" type="building" color="255,230,230" fill="1" layer="-1.00" shape="211.16,288.01 194.81,318.91 216.73,332.77 235.05,301.61 211.16,288.01"/>
    <poly id="105935044" type="building" color="255,230,230" fill="1" layer="-1.00" shape="247.49,334.84 256.32,321.31 262.50,325.32 253.67,338.86 247.49,334.84"/>
    <poly id="105935047" type="building" color="255,230,230" fill="1" layer="-1.00" shape="215.11,314.46 222.14,302.41 227.02,305.25 219.98,317.30 215.11,314.46"/>
    <poly id="105935049" type="building" color="255,230,230" fill="1" layer="-1.00" shape="330.91,332.27 337.63,321.66 346.04,326.96 339.32,337.57 330.91,332.27"/>
    <poly id="105935050" type="building" color="255,230,230" fill="1" layer="-1.00" shape="359.66,357.32 354.18,365.74 347.42,377.34 354.42,381.03 359.99,384.41 379.12,396.05 391.38,376.03 359.66,357.32"/>
    <poly id="105935054" type="building" color="255,230,230" fill="1" layer="-1.00" shape="346.17,346.70 348.94,342.22 350.24,341.99 352.29,338.37 352.12,337.06 354.64,332.75 363.26,337.95 360.61,342.39 359.42,343.28 357.45,346.59 357.54,347.75 354.78,351.91 346.17,346.70"/>
    <poly id="105943973" type="building" color="255,230,230" fill="1" layer="-1.00" shape="535.96,89.51 536.01,92.05 498.96,92.85 498.92,90.78 490.36,90.96 490.39,92.42 475.04,92.75 473.88,38.47 487.88,38.16 488.80,81.32 498.76,81.11 498.62,75.03 535.63,74.24 535.96,89.51"/>
    <poly id="131749443" type="building" color="255,230,230" fill="1" layer="-1.00" shape="88.43,382.94 116.88,400.10 129.74,378.90 101.40,362.21 99.00,366.11 88.43,382.94"/>
    <poly id="131749446" type="building" color="255,230,230" fill="1" layer="-1.00" shape="124.19,308.83 162.67,322.71 149.00,346.24 118.83,329.69 116.56,328.48 118.32,325.60 124.19,308.83"/>
    <poly id="131749447" type="building" color="255,230,230" fill="1" layer="-1.00" shape="149.00,346.24 129.74,378.90 101.40,362.21 103.51,358.66 116.50,365.76 122.99,355.02 112.07,348.02 113.16,345.68 111.43,344.60 114.15,340.23 116.58,333.30 118.83,329.69 149.00,346.24"/>
    <poly id="164177543" type="building" color="255,230,230" fill="1" layer="-1.00" shape="212.75,346.53 229.54,357.04 226.83,361.76 223.89,366.36 212.64,359.51 204.33,373.07 211.62,377.51 208.77,382.15 196.98,374.98 197.41,374.28 196.18,373.53 212.75,346.53"/>
    <poly id="164177547" type="building" color="255,230,230" fill="1" layer="-1.00" shape="212.75,346.53 193.62,334.58 175.60,363.92 190.79,373.16 192.08,371.04 196.18,373.53 212.75,346.53"/>
    <poly id="164177552" type="building" color="255,230,230" fill="1" layer="-1.00" shape="247.03,265.60 268.53,259.77 287.26,271.20 276.14,288.34 262.67,279.14 266.13,274.11 263.62,272.81 248.85,275.86 247.03,265.60"/>
    <poly id="164177559" type="building" color="255,230,230" fill="1" layer="-1.00" shape="190.20,364.38 198.83,350.28 203.00,352.82 194.38,366.91 190.20,364.38"/>
    <poly id="164177561" type="building" color="255,230,230" fill="1" layer="-1.00" shape="118.45,343.44 121.17,338.22 132.86,344.27 130.14,349.49 118.45,343.44"/>
    <poly id="164177563" type="building" color="255,230,230" fill="1" layer="-1.00" shape="127.87,326.04 129.38,323.30 142.89,330.76 141.37,333.48 127.87,326.04"/>
    <poly id="25261729" type="building" color="255,230,230" fill="1" layer="-1.00" shape="479.59,363.10 498.54,362.72 498.42,357.17 548.26,356.16 548.46,364.94 594.65,364.01 594.44,354.80 644.89,353.78 644.99,358.42 664.50,358.03 663.89,330.97 661.38,331.02 661.08,318.07 660.98,313.79 660.71,301.63 660.64,298.31 660.33,285.01 662.05,284.98 661.65,261.11 661.51,258.08 642.14,258.47 642.42,270.95 583.42,272.14 583.29,266.04 553.58,266.64 553.74,273.73 496.78,274.88 496.55,264.84 478.24,265.21 478.78,288.85 473.94,288.95 474.31,305.00 478.81,304.91 479.00,313.31 479.19,321.71 474.75,321.80 475.06,335.43 478.97,335.35 479.59,363.10"/>
    <poly id="256322644" type="building" color="255,230,230" fill="1" layer="-1.00" shape="471.39,168.73 469.70,131.72 483.65,131.09 484.15,142.08 508.81,140.95 508.30,129.96 522.27,129.32 524.02,167.46 510.47,168.09 509.91,155.93 483.96,157.11 484.47,168.13 471.39,168.73"/>
    <poly id="256322648" type="building" color="255,230,230" fill="1" layer="-1.00" shape="468.71,128.53 467.49,101.97 520.59,99.55 521.83,126.72 508.59,127.32 508.07,116.03 482.44,117.19 482.93,127.89 468.71,128.53"/>
    <poly id="256322650" type="building" color="255,230,230" fill="1" layer="-1.00" shape="469.15,173.03 470.39,200.16 523.56,197.73 522.37,171.52 509.80,172.10 510.24,181.73 483.43,183.33 482.94,172.78 469.15,173.03"/>
    <poly id="256323529" type="building" color="255,230,230" fill="1" layer="-1.00" shape="425.50,198.32 405.49,199.15 405.12,190.05 408.41,189.91 408.32,187.77 405.19,187.90 403.60,149.58 426.12,148.64 426.38,154.80 426.65,161.39 423.97,161.50 425.50,198.32"/>
    <poly id="256323530" type="building" color="255,230,230" fill="1" layer="-1.00" shape="342.51,134.63 325.19,157.63 330.50,164.04 332.95,161.95 335.97,164.21 334.79,166.73 339.71,166.69 356.79,166.30 356.41,163.24 360.61,162.67 358.20,147.16 342.51,134.63"/>
    <poly id="256323531" type="building" color="255,230,230" fill="1" layer="-1.00" shape="338.04,200.49 317.93,201.48 316.79,202.67 314.51,202.26 314.52,196.27 312.97,196.62 312.36,175.38 325.19,157.63 330.50,164.04 334.79,166.73 337.94,170.42 338.36,188.78 337.81,190.93 338.04,200.49"/>
    <poly id="256323532" type="building" color="255,230,230" fill="1" layer="-1.00" shape="356.79,166.30 356.84,168.32 359.24,168.27 359.70,188.22 358.19,188.26 358.24,190.08 360.00,190.04 360.23,199.97 338.04,200.49 337.81,190.93 340.18,190.88 340.13,188.74 338.36,188.78 337.94,170.42 339.79,170.39 339.71,166.69 356.79,166.30"/>
    <poly id="256323533" type="building" color="255,230,230" fill="1" layer="-1.00" shape="455.48,156.83 455.76,166.55 457.10,166.50 457.31,173.77 455.69,173.82 455.81,177.79 457.38,177.74 457.58,184.47 455.86,184.51 456.18,195.33 457.43,195.29 457.53,198.87 442.93,199.30 442.17,173.78 434.02,174.02 434.77,199.45 425.33,199.72 425.50,198.32 423.97,161.50 426.65,161.39 440.40,161.00 440.29,157.28 444.58,157.15 447.25,157.07 455.48,156.83"/>
    <poly id="256323534" type="building" color="255,230,230" fill="1" layer="-1.00" shape="410.78,119.72 426.47,119.10 426.39,116.94 441.41,116.35 441.63,121.64 443.40,121.57 443.76,130.73 438.68,130.93 438.81,134.45 444.08,134.24 444.53,145.70 431.19,146.23 431.11,144.21 433.58,144.12 433.29,136.78 430.25,134.22 425.65,134.56 425.97,143.20 426.12,148.64 426.38,154.80 428.83,154.69 428.97,158.23 440.29,157.28 444.58,157.15 444.51,155.55 447.20,155.45 447.25,157.07 455.48,156.83 453.28,100.79 401.50,102.83 402.18,120.05 402.56,129.53 411.16,129.20 410.78,119.72"/>
    <poly id="256323536" type="building" color="255,230,230" fill="1" layer="-1.00" shape="425.97,143.20 409.27,143.83 408.98,136.18 415.42,135.93 415.38,134.95 425.65,134.56 425.97,143.20"/>
    <poly id="256323537" type="building" color="255,230,230" fill="1" layer="-1.00" shape="380.48,104.59 382.41,144.69 362.09,146.99 361.98,145.59 358.46,145.52 358.20,147.16 342.51,134.63 364.00,104.14 380.48,104.59"/>
    <poly id="256323538" type="building" color="255,230,230" fill="1" layer="-1.00" shape="416.88,87.80 452.79,86.67 452.14,65.96 439.00,66.37 439.24,73.91 424.01,74.40 423.79,67.45 416.25,67.69 416.88,87.80"/>
    <poly id="256323539" type="building" color="255,230,230" fill="1" layer="-1.00" shape="387.12,69.86 377.17,82.99 380.63,88.85 416.88,87.80 416.25,67.69 411.12,67.63 411.30,74.66 398.29,75.20 398.39,70.03 387.12,69.86"/>
    <poly id="256323542" type="building" color="255,230,230" fill="1" layer="-1.00" shape="346.41,187.61 346.08,172.67 353.56,172.49 353.91,187.43 346.41,187.61"/>
    <poly id="256323543" type="building" color="255,230,230" fill="1" layer="-1.00" shape="412.06,183.49 411.15,161.55 421.19,161.14 422.10,183.08 412.06,183.49"/>
    <poly id="256323544" type="building" color="255,230,230" fill="1" layer="-1.00" shape="343.96,158.57 348.18,152.55 349.62,154.07 352.04,151.05 352.09,159.30 343.96,158.57"/>
    <poly id="256323545" type="building" color="255,230,230" fill="1" layer="-1.00" shape="358.84,135.31 365.55,125.82 366.82,126.72 370.00,122.44 368.78,120.99 373.10,115.43 374.54,139.05 363.31,139.41 358.84,135.31"/>
    <poly id="258228062" type="building" color="255,230,230" fill="1" layer="-1.00" shape="229.54,357.04 235.37,360.68 232.79,365.20 226.83,361.76 229.54,357.04"/>
    <poly id="258476959" type="building" color="255,230,230" fill="1" layer="-1.00" shape="64.42,343.45 74.21,329.34 78.31,319.12 80.77,307.74 92.31,311.09 89.04,322.96 86.38,330.55 81.66,334.74 77.69,341.07 72.72,348.99 64.42,343.45"/>
    <poly id="258476960" type="building" color="255,230,230" fill="1" layer="-1.00" shape="110.46,304.06 124.19,308.83 118.32,325.60 114.35,324.22 115.95,319.66 112.88,318.60 108.70,330.56 116.58,333.30 114.15,340.23 99.56,335.15 110.46,304.06"/>
    <poly id="258476962" type="building" color="255,230,230" fill="1" layer="-1.00" shape="74.45,374.23 61.83,366.36 64.66,361.86 72.72,348.99 77.69,341.07 89.84,348.64 86.22,354.41 79.62,350.29 74.21,358.93 77.83,361.19 79.78,358.08 83.23,360.22 74.45,374.23"/>
    <poly id="258476963" type="building" color="255,230,230" fill="1" layer="-1.00" shape="89.84,348.64 93.81,342.31 81.66,334.74 77.69,341.07 89.84,348.64"/>
    <poly id="258476966" type="building" color="255,230,230" fill="1" layer="-1.00" shape="88.43,382.94 74.45,374.23 83.23,360.22 90.24,364.60 92.02,361.76 99.00,366.11 88.43,382.94"/>
    <poly id="258476968" type="building" color="255,230,230" fill="1" layer="-1.00" shape="80.77,307.74 48.66,297.32 52.27,283.27 95.98,299.01 92.39,309.24 92.31,311.09 80.77,307.74"/>
    <poly id="258476971" type="building" color="255,230,230" fill="1" layer="-1.00" shape="64.66,361.86 32.62,341.59 45.20,304.98 58.61,309.80 51.42,334.75 64.42,343.45 72.72,348.99 64.66,361.86"/>
    <poly id="258476973" type="building" color="255,230,230" fill="1" layer="-1.00" shape="95.98,299.01 110.46,304.06 99.56,335.15 86.38,330.55 89.04,322.96 95.56,325.22 100.21,311.96 92.39,309.24 95.98,299.01"/>
    <poly id="258477517" type="building" color="255,230,230" fill="1" layer="-1.00" shape="132.08,293.89 149.94,299.79 153.58,288.84 155.11,284.24 156.65,279.60 150.80,277.66 147.64,287.16 142.66,285.52 146.49,273.99 142.07,272.53 139.47,271.67 137.93,276.29 132.08,293.89"/>
    <poly id="258477518" type="building" color="255,230,230" fill="1" layer="-1.00" shape="185.85,286.79 195.07,269.54 181.47,264.66 178.18,274.54 158.47,268.02 161.67,258.40 153.82,255.82 148.24,253.97 142.07,272.53 146.49,273.99 151.75,275.73 175.72,283.65 177.94,284.39 185.85,286.79"/>
    <poly id="258477519" type="building" color="255,230,230" fill="1" layer="-1.00" shape="195.07,269.54 202.18,256.25 196.95,220.92 161.08,207.49 155.64,224.62 150.38,240.39 146.34,252.55 148.24,253.97 153.82,255.82 155.76,252.45 164.32,255.96 163.17,259.49 181.47,264.66 195.07,269.54"/>
    <poly id="258477519#1" type="tourism" color="207,245,201" fill="1" layer="-2.00" shape="195.07,269.54 202.18,256.25 196.95,220.92 161.08,207.49 155.64,224.62 150.38,240.39 146.34,252.55 148.24,253.97 153.82,255.82 155.76,252.45 164.32,255.96 163.17,259.49 181.47,264.66 195.07,269.54"/>
    <poly id="258477520" type="building" color="255,230,230" fill="1" layer="-1.00" shape="117.23,288.99 132.08,293.89 137.93,276.29 134.12,275.03 132.36,280.32 128.71,279.12 133.26,265.43 141.02,267.99 143.01,262.01 133.52,258.88 132.92,260.70 127.25,258.83 121.75,275.39 117.23,288.99"/>
    <poly id="258477521" type="building" color="255,230,230" fill="1" layer="-1.00" shape="71.43,233.76 59.41,269.89 85.07,278.37 87.39,271.38 88.06,269.35 94.43,250.20 88.57,248.27 83.96,262.14 77.80,260.10 78.66,257.49 81.55,258.44 84.52,249.50 80.93,248.32 81.70,246.00 84.35,238.03 71.43,233.76"/>
    <poly id="258477522" type="building" color="255,230,230" fill="1" layer="-1.00" shape="149.94,299.79 170.86,309.54 174.35,308.32 185.85,286.79 177.94,284.39 176.92,286.71 174.62,285.95 175.72,283.65 151.75,275.73 150.80,277.66 156.65,279.60 155.11,284.24 169.21,288.86 167.35,293.13 153.58,288.84 149.94,299.79"/>
    <poly id="258477523" type="building" color="255,230,230" fill="1" layer="-1.00" shape="85.07,278.37 102.23,284.04 104.76,276.40 103.03,275.83 103.66,273.96 105.39,274.53 106.75,270.44 113.05,251.46 112.91,251.42 108.18,249.86 106.71,254.27 101.84,268.92 98.27,267.74 103.15,253.09 94.43,250.20 88.06,269.35 90.69,270.22 90.01,272.25 87.39,271.38 85.07,278.37"/>
    <poly id="258477524" type="building" color="255,230,230" fill="1" layer="-1.00" shape="131.24,196.29 103.16,185.78 100.01,195.32 102.52,196.26 96.23,215.71 91.78,214.52 88.34,226.03 91.86,227.19 87.87,239.19 84.35,238.03 81.70,246.00 88.57,248.27 94.43,250.20 103.15,253.09 106.71,254.27 108.18,249.86 112.91,251.42 114.17,247.63 107.99,245.59 109.48,241.08 102.56,238.79 113.68,205.36 120.60,207.65 113.74,228.29 119.92,230.33 125.02,215.01 131.24,196.29"/>
    <poly id="258477525" type="building" color="255,230,230" fill="1" layer="-1.00" shape="161.08,207.49 131.24,196.29 125.02,215.01 155.64,224.62 161.08,207.49"/>
    <poly id="258477526" type="building" color="255,230,230" fill="1" layer="-1.00" shape="78.85,210.24 71.43,233.76 84.35,238.03 88.34,226.03 91.78,214.52 78.85,210.24"/>
    <poly id="258477527" type="building" color="255,230,230" fill="1" layer="-1.00" shape="103.16,185.78 88.78,180.39 78.85,210.24 91.78,214.52 98.34,194.76 100.01,195.32 103.16,185.78"/>
    <poly id="258477528" type="building" color="255,230,230" fill="1" layer="-1.00" shape="150.38,240.39 119.92,230.33 114.80,245.74 139.73,253.97 140.81,250.72 146.34,252.55 150.38,240.39"/>
    <poly id="258477529" type="building" color="255,230,230" fill="1" layer="-1.00" shape="102.23,284.04 104.50,284.78 117.23,288.99 121.75,275.39 106.75,270.44 105.39,274.53 104.76,276.40 102.23,284.04"/>
    <poly id="258477531" type="building" color="255,230,230" fill="1" layer="-1.00" shape="114.17,247.63 114.80,245.74 119.92,230.33 113.74,228.29 109.48,241.08 107.99,245.59 114.17,247.63"/>
    <poly id="258477532" type="building" color="255,230,230" fill="1" layer="-1.00" shape="157.21,244.38 163.21,227.54 173.64,231.20 167.44,248.25 157.21,244.38"/>
    <poly id="258477532#1" type="tourism" color="207,245,201" fill="1" layer="-2.00" shape="157.21,244.38 163.21,227.54 173.64,231.20 167.44,248.25 157.21,244.38"/>
    <poly id="258477533" type="building" color="255,230,230" fill="1" layer="-1.00" shape="177.08,244.71 179.46,245.27 182.93,235.09 189.84,238.21 192.29,253.82 176.34,248.65 177.08,244.71"/>
    <poly id="258477533#1" type="tourism" color="207,245,201" fill="1" layer="-2.00" shape="177.08,244.71 179.46,245.27 182.93,235.09 189.84,238.21 192.29,253.82 176.34,248.65 177.08,244.71"/>
    <poly id="258479112" type="building" color="255,230,230" fill="1" layer="-1.00" shape="20.13,332.18 29.96,305.37 15.12,300.38 -1.16,295.98 -2.60,298.13 -0.92,299.01 -2.01,300.49 -3.65,299.70 -13.21,313.93 15.49,333.45 20.13,332.18"/>
    <poly id="258479113" type="building" color="255,230,230" fill="1" layer="-1.00" shape="29.96,305.37 39.26,277.95 15.28,269.75 12.67,277.43 11.70,280.31 7.66,278.94 5.06,286.61 12.59,289.13 14.53,283.42 21.65,285.82 19.17,293.12 17.75,292.64 15.12,300.38 29.96,305.37"/>
    <poly id="258480511" type="building" color="255,230,230" fill="1" layer="-1.00" shape="52.93,238.26 62.17,209.47 54.02,206.87 52.57,206.41 31.39,199.67 25.82,217.03 24.71,220.49 23.74,223.52 24.70,223.83 23.12,228.77 24.69,229.28 52.93,238.26"/>
    <poly id="258480513" type="building" color="255,230,230" fill="1" layer="-1.00" shape="19.92,158.78 0.23,151.20 -4.89,152.89 -22.05,179.78 -15.87,183.34 -10.72,185.30 -9.17,179.90 -6.78,180.68 -3.68,181.67 -3.02,179.62 1.61,168.29 10.34,171.32 15.38,172.93 19.92,158.78"/>
    <poly id="258480515" type="building" color="255,230,230" fill="1" layer="-1.00" shape="42.21,165.88 19.92,158.78 15.38,172.93 9.89,190.06 8.95,193.00 4.37,207.27 2.55,212.98 1.44,216.42 4.88,217.51 13.44,220.25 23.74,223.52 24.71,220.49 22.70,219.86 23.82,216.40 25.82,217.03 31.39,199.67 42.21,165.88"/>
    <poly id="258480517" type="building" color="255,230,230" fill="1" layer="-1.00" shape="13.15,256.55 2.85,253.27 13.44,220.25 23.74,223.52 20.94,232.27 13.15,256.55"/>
    <poly id="258480518" type="building" color="255,230,230" fill="1" layer="-1.00" shape="43.94,266.35 52.93,238.26 24.69,229.28 23.47,233.08 20.94,232.27 13.15,256.55 43.94,266.35"/>
    <poly id="258480520" type="building" color="255,230,230" fill="1" layer="-1.00" shape="62.17,209.47 73.00,175.68 42.21,165.88 31.39,199.67 52.57,206.41 53.42,203.77 54.86,204.22 54.02,206.87 62.17,209.47"/>
    <poly id="258480521" type="building" color="255,230,230" fill="1" layer="-1.00" shape="12.19,208.37 21.93,177.96 30.28,180.61 20.53,211.03 12.19,208.37"/>
    <poly id="258480523" type="building" color="255,230,230" fill="1" layer="-1.00" shape="24.17,246.35 27.49,236.01 38.23,239.44 34.92,249.77 24.17,246.35"/>
    <poly id="258480524" type="building" color="255,230,230" fill="1" layer="-1.00" shape="32.39,222.90 37.24,207.76 47.33,210.98 42.48,226.11 32.39,222.90"/>
    <poly id="258480525" type="building" color="255,230,230" fill="1" layer="-1.00" shape="41.43,194.44 45.78,180.87 51.20,182.60 49.10,189.15 53.72,190.63 51.47,197.63 41.43,194.44"/>
    <poly id="260441257" type="building" color="255,230,230" fill="1" layer="-1.00" shape="60.97,70.12 55.80,86.13 39.99,81.06 41.23,77.23 38.70,76.41 40.48,70.92 47.20,73.07 47.96,70.74 41.23,68.60 42.63,64.24 60.97,70.12"/>
    <poly id="260441262" type="building" color="255,230,230" fill="1" layer="-1.00" shape="-19.78,115.87 10.53,125.58 12.70,118.81 8.95,117.61 10.37,113.21 14.13,114.40 15.20,111.09 22.03,89.92 19.72,89.18 20.51,86.71 23.46,87.66 26.07,79.58 -3.90,69.98 -4.47,71.74 -6.18,77.05 -2.04,78.37 -2.93,81.13 -8.05,79.49 -16.72,106.37 -12.47,107.73 -13.20,110.03 -17.46,108.67 -19.78,115.87"/>
    <poly id="260441266" type="building" color="255,230,230" fill="1" layer="-1.00" shape="10.53,125.58 40.02,135.03 55.80,86.13 39.99,81.06 28.89,115.47 15.20,111.09 14.13,114.40 12.70,118.81 10.53,125.58"/>
    <poly id="260484431" type="parking" color="184,184,179" fill="1" layer="-1.00" shape="327.61,82.15 334.18,86.65 369.87,34.96 373.68,37.57 379.65,41.67 399.51,12.90 393.70,8.91 377.41,-2.26 364.72,16.12 319.02,82.31 324.78,86.26 327.61,82.15"/>
    <poly id="260556140" type="building" color="255,230,230" fill="1" layer="-1.00" shape="221.24,55.57 253.49,66.47 253.74,65.76 309.34,84.55 310.22,81.95 311.79,82.48 313.97,82.68 316.14,82.18 317.73,80.85 318.63,78.67 321.07,71.47 311.17,68.13 310.87,69.00 310.41,69.28 309.63,69.11 241.49,46.08 245.33,34.79 242.21,33.69 230.05,29.69 221.24,55.57"/>
    <poly id="260556496" type="building" color="255,230,230" fill="1" layer="-1.00" shape="201.93,114.87 210.22,92.59 235.37,101.42 244.15,104.69 260.20,110.32 261.04,110.66 246.84,130.10 241.20,128.88 212.83,118.94 210.78,117.98 201.93,114.87"/>
    <poly id="260556497" type="building" color="255,230,230" fill="1" layer="-1.00" shape="272.88,181.64 286.43,162.52 270.39,151.23 266.61,156.55 268.62,157.97 264.22,164.18 260.52,161.58 255.15,169.17 262.83,174.57 266.99,177.49 272.88,181.64"/>
    <poly id="260556498" type="building" color="255,230,230" fill="1" layer="-1.00" shape="244.85,76.57 269.12,85.09 263.37,101.35 260.57,109.27 260.20,110.32 244.15,104.69 246.54,97.93 256.42,101.40 258.28,96.13 240.19,89.77 240.59,88.63 244.85,76.57"/>
    <poly id="260556499" type="building" color="255,230,230" fill="1" layer="-1.00" shape="176.48,186.53 186.55,156.01 195.20,158.92 196.64,159.40 211.84,164.52 210.39,168.52 213.38,169.22 206.95,185.67 205.40,185.49 205.10,186.93 206.22,187.45 202.57,196.24 176.48,186.53"/>
    <poly id="260556500" type="building" color="255,230,230" fill="1" layer="-1.00" shape="194.38,136.30 201.93,114.87 210.78,117.98 209.90,120.47 212.03,121.20 212.83,118.94 241.20,128.88 235.31,145.59 233.53,144.97 231.95,149.46 231.13,149.18 216.83,144.16 207.31,140.83 194.38,136.30"/>
    <poly id="260556501" type="building" color="255,230,230" fill="1" layer="-1.00" shape="186.55,156.01 194.38,136.30 207.31,140.83 202.76,153.99 212.81,156.31 216.83,144.16 231.13,149.18 228.23,156.12 223.33,167.90 211.84,164.52 196.64,159.40 197.31,158.02 195.50,157.68 195.20,158.92 186.55,156.01"/>
    <poly id="260556502" type="building" color="255,230,230" fill="1" layer="-1.00" shape="246.37,191.47 263.99,190.23 263.39,181.77 262.83,174.57 253.16,175.18 252.35,163.71 244.45,164.26 246.37,191.47"/>
    <poly id="260556503" type="building" color="255,230,230" fill="1" layer="-1.00" shape="279.47,123.22 301.93,140.72 307.15,134.05 288.36,119.72 292.16,110.68 286.02,108.69 285.11,111.39 279.47,123.22"/>
    <poly id="260556504" type="building" color="255,230,230" fill="1" layer="-1.00" shape="263.99,190.23 268.60,189.58 270.06,188.85 274.20,182.52 272.88,181.64 266.99,177.49 263.39,181.77 263.99,190.23"/>
    <poly id="260556505" type="building" color="255,230,230" fill="1" layer="-1.00" shape="225.75,193.61 246.37,191.47 244.45,164.26 243.47,155.79 228.23,156.12 223.33,167.90 223.43,171.26 225.75,193.61"/>
    <poly id="260556506" type="building" color="255,230,230" fill="1" layer="-1.00" shape="210.22,92.59 219.09,67.52 244.85,76.57 240.59,88.63 227.68,84.09 225.62,89.92 237.91,94.23 235.37,101.42 210.22,92.59"/>
    <poly id="260556507" type="building" color="255,230,230" fill="1" layer="-1.00" shape="269.12,85.09 289.67,92.30 284.09,108.06 279.43,106.55 280.52,103.49 271.83,100.43 270.67,103.72 263.37,101.35 269.12,85.09"/>
    <poly id="260556508" type="building" color="255,230,230" fill="1" layer="-1.00" shape="263.37,101.35 260.57,109.27 279.47,123.22 285.11,111.39 280.11,108.25 277.55,112.05 269.84,106.24 270.67,103.72 263.37,101.35"/>
    <poly id="260556509" type="building" color="255,230,230" fill="1" layer="-1.00" shape="202.57,196.24 225.75,193.61 223.43,171.26 222.06,171.35 222.16,168.87 214.38,166.69 213.38,169.22 206.95,185.67 206.22,187.45 202.57,196.24"/>
    <poly id="260556512" type="building" color="255,230,230" fill="1" layer="-1.00" shape="289.67,92.30 323.04,103.76 324.18,109.26 314.83,122.42 303.90,116.14 304.88,114.80 292.16,110.68 286.02,108.69 284.09,108.06 289.67,92.30"/>
    <poly id="260556514" type="building" color="255,230,230" fill="1" layer="-1.00" shape="195.22,176.14 197.99,167.38 206.00,170.04 203.02,178.81 195.22,176.14"/>
    <poly id="260556515" type="building" color="255,230,230" fill="1" layer="-1.00" shape="213.68,178.71 215.19,172.89 218.69,173.85 218.97,178.30 213.68,178.71"/>
    <poly id="260556517" type="building" color="255,230,230" fill="1" layer="-1.00" shape="212.46,133.28 214.55,126.45 232.67,132.70 230.35,139.92 212.46,133.28"/>
    <poly id="260556518" type="building" color="255,230,230" fill="1" layer="-1.00" shape="218.26,111.68 220.87,103.49 245.48,111.29 242.87,119.48 218.26,111.68"/>
    <poly id="260556519" type="building" color="255,230,230" fill="1" layer="-1.00" shape="232.63,176.42 231.22,165.10 238.36,164.21 239.76,175.53 232.63,176.42"/>
    <poly id="260558438" type="building" color="255,230,230" fill="1" layer="-1.00" shape="70.30,146.92 52.20,140.92 59.78,118.21 75.06,123.28 73.61,127.60 72.00,127.06 70.09,132.77 74.53,134.24 73.50,137.34 72.83,139.35 70.30,146.92"/>
    <poly id="260558439" type="building" color="255,230,230" fill="1" layer="-1.00" shape="77.88,124.21 75.06,123.28 59.78,118.21 68.61,91.77 86.70,97.77 85.92,100.13 84.70,103.78 79.74,102.14 75.65,114.39 80.61,116.04 78.61,122.04 77.88,124.21"/>
    <poly id="260558439#1" type="tourism" color="207,245,201" fill="1" layer="-2.00" shape="77.88,124.21 75.06,123.28 59.78,118.21 68.61,91.77 86.70,97.77 85.92,100.13 84.70,103.78 79.74,102.14 75.65,114.39 80.61,116.04 78.61,122.04 77.88,124.21"/>
    <poly id="260558440" type="building" color="255,230,230" fill="1" layer="-1.00" shape="169.74,50.16 159.53,80.76 152.73,101.11 150.89,106.64 149.83,109.81 148.02,115.23 145.56,114.42 126.76,108.18 128.17,103.95 141.78,63.20 148.48,43.11 169.74,50.16"/>
    <poly id="260558441" type="building" color="255,230,230" fill="1" layer="-1.00" shape="181.91,129.48 187.53,112.65 167.88,106.14 152.73,101.11 150.89,106.64 171.93,113.61 170.86,116.79 149.83,109.81 148.02,115.23 149.55,115.73 148.65,118.45 181.91,129.48"/>
    <poly id="260558442" type="building" color="255,230,230" fill="1" layer="-1.00" shape="130.41,166.85 161.96,177.31 166.24,176.42 181.91,129.48 148.65,118.45 147.27,122.57 145.40,121.95 133.97,156.16 135.74,156.75 135.09,158.72 133.32,158.13 130.41,166.85"/>
    <poly id="260558443" type="building" color="255,230,230" fill="1" layer="-1.00" shape="124.96,68.60 119.64,84.54 121.41,85.12 118.60,93.54 116.65,92.88 112.20,106.23 103.45,103.33 105.88,96.05 107.25,91.95 112.40,76.53 114.26,70.94 116.03,65.64 124.96,68.60"/>