<?xml version="1.0" encoding="UTF-8"?>

<!-- generated on Sat May 25 20:37:52 2019 by SUMO netconvert Version 0.32.0
<?xml version="1.0" encoding="UTF-8"?>

<configuration xmlns:xsi="http://www.w3.org/2001/XMLSchema-instance" xsi:noNamespaceSchemaLocation="http://sumo.dlr.de/xsd/netconvertConfiguration.xsd">

    <input>
        <type-files value="/home/rd/Downloads/sumo-0.32.0/data/typemap/osmNetconvertUrbanDe.typ.xml"/>
        <osm-files value="4/map.osm"/>
    </input>

    <output>
        <output-file value="4/map.net.xml"/>
    </output>

    <projection>
        <proj.utm value="true"/>
    </projection>

    <tls_building>
        <tls.discard-simple value="true"/>
        <tls.join value="true"/>
        <tls.guess-signals value="true"/>
    </tls_building>

    <ramp_guessing>
        <ramps.guess value="true"/>
    </ramp_guessing>

    <processing>
        <geometry.remove value="true"/>
        <roundabouts.guess value="true"/>
        <junctions.join value="true"/>
    </processing>

</configuration>
-->

<net version="0.27" xmlns:xsi="http://www.w3.org/2001/XMLSchema-instance" xsi:noNamespaceSchemaLocation="http://sumo.dlr.de/xsd/net_file.xsd">

    <location netOffset="-355131.46,-5262247.72" convBoundary="0.00,0.00,636.88,426.16" origBoundary="19.023213,47.463971,19.103538,47.509019" projParameter="+proj=utm +zone=34 +ellps=WGS84 +datum=WGS84 +units=m +no_defs"/>

    <type id="highway.motorway" speed="27.78"/>
    <type id="highway.motorway_link" speed="16.67"/>
    <type id="highway.primary" speed="13.89"/>
    <type id="highway.primary_link" speed="13.89"/>
    <type id="highway.secondary" speed="13.89"/>
    <type id="highway.secondary_link" speed="13.89"/>
    <type id="highway.tertiary" speed="13.89"/>
    <type id="highway.tertiary_link" speed="13.89"/>
    <type id="highway.trunk" speed="13.89"/>
    <type id="highway.trunk_link" speed="13.89"/>

    <edge id=":1772326662_0" function="internal">
        <lane id=":1772326662_0_0" index="0" speed="13.89" length="3.49" shape="232.81,208.39 233.71,208.36 234.31,208.09 234.92,207.78 235.83,207.68"/>
        <lane id=":1772326662_0_1" index="1" speed="13.89" length="3.49" shape="232.81,208.39 235.61,210.97"/>
    </edge>
    <edge id=":1772326662_2" function="internal">
        <lane id=":1772326662_2_0" index="0" speed="13.89" length="4.22" shape="232.81,208.39 237.41,206.34"/>
        <lane id=":1772326662_2_1" index="1" speed="13.89" length="4.22" shape="232.81,208.39 233.80,208.55 234.48,208.71 235.13,208.95 236.06,209.35"/>
    </edge>
    <edge id=":1978311513_0" function="internal">
        <lane id=":1978311513_0_0" index="0" speed="13.89" length="3.55" shape="422.76,345.63 421.84,345.29 421.06,345.44 420.29,345.58 419.36,345.25"/>
        <lane id=":1978311513_0_1" index="1" speed="13.89" length="3.55" shape="422.76,345.63 422.14,344.87 422.01,344.09 421.89,343.31 421.26,342.55"/>
    </edge>
    <edge id=":2299991433_0" function="internal">
        <lane id=":2299991433_0_0" index="0" speed="13.89" length="9.51" shape="208.74,222.27 207.34,219.80 205.78,217.89 204.06,216.54 202.19,215.75"/>
    </edge>
    <edge id=":2299991433_1" function="internal">
        <lane id=":2299991433_1_0" index="0" speed="13.89" length="10.36" shape="211.51,219.28 208.77,218.14 206.92,217.31 205.03,216.58 202.19,215.75"/>
        <lane id=":2299991433_1_1" index="1" speed="13.89" length="10.36" shape="212.71,216.21 209.87,215.02 207.94,214.17 205.98,213.42 203.03,212.56"/>
        <lane id=":2299991433_1_2" index="2" speed="13.89" length="10.36" shape="213.92,213.13 210.97,211.91 208.97,211.03 206.93,210.26 203.87,209.37"/>
    </edge>
    <edge id=":2460377692_0" function="internal">
        <lane id=":2460377692_0_0" index="0" speed="13.89" length="4.41" shape="377.82,209.88 380.92,213.01"/>
    </edge>
    <edge id=":2460377692_1" function="internal">
        <lane id=":2460377692_1_0" index="0" speed="13.89" length="3.54" shape="378.03,216.47 379.08,216.45 379.80,216.47 380.52,216.59 381.53,216.84"/>
    </edge>
    <edge id=":2460377698_0" function="internal">
        <lane id=":2460377698_0_0" index="0" speed="13.89" length="12.45" shape="264.27,225.75 259.78,214.14"/>
    </edge>
    <edge id=":2460377698_1" function="internal">
        <lane id=":2460377698_1_0" index="0" speed="13.89" length="2.64" shape="264.27,225.75 263.74,223.78 263.89,223.20"/>
    </edge>
    <edge id=":2460377698_5" function="internal">
        <lane id=":2460377698_5_0" index="0" speed="13.89" length="3.82" shape="263.89,223.20 264.04,222.63 265.18,222.30 267.16,222.79"/>
    </edge>
    <edge id=":2460377698_2" function="internal">
        <lane id=":2460377698_2_0" index="0" speed="13.89" length="3.52" shape="258.12,215.60 259.21,215.94 259.84,215.81 260.04,215.21 259.78,214.14"/>
    </edge>
    <edge id=":2460377698_3" function="internal">
        <lane id=":2460377698_3_0" index="0" speed="13.89" length="11.09" shape="258.12,215.60 268.32,219.70"/>
        <lane id=":2460377698_3_1" index="1" speed="13.89" length="11.09" shape="256.79,218.61 267.16,222.79"/>
    </edge>
    <edge id=":2460377701_0" function="internal">
        <lane id=":2460377701_0_0" index="0" speed="13.89" length="7.74" shape="268.41,235.23 267.12,233.37 266.48,231.94 266.03,230.40 265.27,228.23"/>
    </edge>
    <edge id=":2460377701_1" function="internal">
        <lane id=":2460377701_1_0" index="0" speed="13.89" length="7.43" shape="268.41,235.23 268.21,234.46 268.27,232.98 268.61,230.80 269.20,227.91"/>
    </edge>
    <edge id=":2460377705_0" function="internal">
        <lane id=":2460377705_0_0" index="0" speed="13.89" length="3.67" shape="262.25,248.02 261.33,247.45 260.65,247.12 259.91,246.97 258.83,246.90"/>
    </edge>
    <edge id=":2460377705_1" function="internal">
        <lane id=":2460377705_1_0" index="0" speed="13.89" length="5.55" shape="262.25,248.02 261.66,242.57"/>
        <lane id=":2460377705_1_1" index="1" speed="13.89" length="5.55" shape="264.03,245.25 263.35,239.74"/>
        <lane id=":2460377705_1_2" index="2" speed="13.89" length="5.55" shape="265.81,242.47 265.05,236.90"/>
    </edge>
    <edge id=":2460377705_4" function="internal">
        <lane id=":2460377705_4_0" index="0" speed="13.89" length="2.91" shape="271.17,234.14 268.54,235.39"/>
    </edge>
    <edge id=":2460377707_0" function="internal">
        <lane id=":2460377707_0_0" index="0" allow="bus bicycle" speed="13.89" length="7.23" shape="181.20,210.25 179.97,203.12"/>
    </edge>
    <edge id=":2460377707_1" function="internal">
        <lane id=":2460377707_1_0" index="0" speed="13.89" length="16.34" shape="186.85,184.56 182.79,200.38"/>
    </edge>
    <edge id=":2460377708_0" function="internal">
        <lane id=":2460377708_0_0" index="0" speed="12.50" length="10.16" shape="398.64,232.23 395.76,233.17 393.73,233.75 391.84,234.56 389.36,236.18"/>
    </edge>
    <edge id=":2460377708_1" function="internal">
        <lane id=":2460377708_1_0" index="0" speed="12.50" length="10.37" shape="393.40,227.61 393.97,229.64 393.48,231.75 391.94,233.93 389.36,236.18"/>
    </edge>
    <edge id=":2491912019_0" function="internal">
        <lane id=":2491912019_0_0" index="0" speed="13.89" length="0.79" shape="227.03,233.20 227.26,232.93 227.43,232.76 227.62,232.61 227.91,232.40"/>
        <lane id=":2491912019_0_1" index="1" speed="13.89" length="0.79" shape="229.51,235.37 229.59,235.28 229.65,235.22 229.71,235.17 229.80,235.11"/>
    </edge>
    <edge id=":2532245903_0" function="internal">
        <lane id=":2532245903_0_0" index="0" speed="13.89" length="3.55" shape="426.67,334.05 427.57,334.44 428.36,334.34 429.14,334.23 430.05,334.61"/>
    </edge>
    <edge id=":2602682439_0" function="internal">
        <lane id=":2602682439_0_0" index="0" speed="13.89" length="15.90" shape="243.92,232.77 239.90,230.59 237.08,229.23 234.17,228.05 229.88,226.45"/>
        <lane id=":2602682439_0_1" index="1" speed="13.89" length="15.90" shape="245.51,229.88 241.37,227.63 238.46,226.22 235.46,225.01 231.04,223.36"/>
        <lane id=":2602682439_0_2" index="2" speed="13.89" length="15.90" shape="247.11,226.99 242.84,224.68 239.84,223.22 236.75,221.97 232.19,220.27"/>
    </edge>
    <edge id=":2602682439_3" function="internal">
        <lane id=":2602682439_3_0" index="0" speed="13.89" length="5.58" shape="247.11,226.99 245.80,226.01 245.31,224.97 245.63,223.86 246.76,222.68"/>
    </edge>
    <edge id=":2602682439_4" function="internal">
        <lane id=":2602682439_4_0" index="0" speed="13.89" length="6.02" shape="230.42,230.65 231.78,229.41 232.14,228.30 231.51,227.31 229.88,226.45"/>
    </edge>
    <edge id=":2602682439_5" function="internal">
        <lane id=":2602682439_5_0" index="0" speed="13.89" length="17.87" shape="230.42,230.65 244.72,220.09"/>
        <lane id=":2602682439_5_1" index="1" speed="13.89" length="17.87" shape="232.31,233.35 246.76,222.68"/>
    </edge>
    <edge id=":262557531_0" function="internal">
        <lane id=":262557531_0_0" index="0" speed="13.89" length="3.57" shape="360.49,97.15 359.94,98.05 359.69,98.74 359.44,99.43 358.92,100.35"/>
    </edge>
    <edge id=":262557531_1" function="internal">
        <lane id=":262557531_1_0" index="0" speed="13.89" length="4.79" shape="360.49,97.15 355.70,98.24"/>
        <lane id=":262557531_1_1" index="1" speed="13.89" length="4.79" shape="357.81,95.22 353.21,96.07"/>
    </edge>
    <edge id=":262557531_3" function="internal">
        <lane id=":262557531_3_0" index="0" speed="13.89" length="90.11" shape="347.49,91.10 371.85,67.29 381.87,60.89 377.56,71.91 359.84,98.94"/>
    </edge>
    <edge id=":262557531_4" function="internal">
        <lane id=":262557531_4_0" index="0" speed="13.89" length="4.56" shape="349.99,93.27 351.85,92.76 353.00,93.06 353.46,94.16 353.43,94.41"/>
    </edge>
    <edge id=":262557531_5" function="internal">
        <lane id=":262557531_5_0" index="0" speed="13.89" length="1.68" shape="359.84,98.94 358.92,100.35"/>
    </edge>
    <edge id=":262557531_6" function="internal">
        <lane id=":262557531_6_0" index="0" speed="13.89" length="1.68" shape="353.43,94.41 353.21,96.07"/>
    </edge>
    <edge id=":262557966_0" function="internal">
        <lane id=":262557966_0_0" index="0" speed="13.89" length="9.58" shape="213.66,251.68 214.72,249.16 214.82,247.25 214.42,245.22 213.99,242.39"/>
    </edge>
    <edge id=":262557966_1" function="internal">
        <lane id=":262557966_1_0" index="0" allow="bus bicycle" speed="13.89" length="9.07" shape="213.66,251.68 214.84,249.24 215.50,247.47 216.30,245.80 217.91,243.67"/>
        <lane id=":262557966_1_1" index="1" speed="13.89" length="9.07" shape="213.66,251.68 215.22,249.59 216.74,248.56 218.41,247.62 220.39,245.84"/>
    </edge>
    <edge id=":262558625_0" function="internal">
        <lane id=":262558625_0_0" index="0" speed="13.89" length="9.46" shape="304.66,206.77 307.24,209.07 309.39,210.71 311.11,211.68 312.41,211.98"/>
    </edge>
    <edge id=":262558625_1" function="internal">
        <lane id=":262558625_1_0" index="0" speed="13.89" length="12.04" shape="302.40,209.17 305.49,211.88 308.21,213.80 310.55,214.94 312.51,215.27"/>
    </edge>
    <edge id=":262558625_2" function="internal">
        <lane id=":262558625_2_0" index="0" speed="13.89" length="12.25" shape="300.77,212.84 304.28,213.44 306.63,214.30 308.99,215.04 312.51,215.27"/>
        <lane id=":262558625_2_1" index="1" speed="13.89" length="12.25" shape="300.51,216.13 304.13,216.74 306.56,217.60 308.99,218.34 312.62,218.57"/>
    </edge>
    <edge id=":275608657_0" function="internal">
        <lane id=":275608657_0_0" index="0" speed="13.89" length="3.39" shape="338.86,112.65 338.47,113.49 338.59,114.23 338.72,114.99 338.38,115.87"/>
    </edge>
    <edge id=":2922963639_0" function="internal">
        <lane id=":2922963639_0_0" index="0" speed="13.89" length="8.22" shape="247.85,211.01 250.33,211.92 252.46,212.25 254.23,212.02 255.65,211.22"/>
    </edge>
    <edge id=":2922963639_1" function="internal">
        <lane id=":2922963639_1_0" index="0" speed="13.89" length="11.06" shape="247.85,211.01 257.94,215.52"/>
        <lane id=":2922963639_1_1" index="1" speed="13.89" length="11.06" shape="246.50,214.03 256.60,218.53"/>
    </edge>
    <edge id=":2922963639_3" function="internal">
        <lane id=":2922963639_3_0" index="0" speed="13.89" length="11.24" shape="247.02,218.28 255.65,211.22"/>
        <lane id=":2922963639_3_1" index="1" speed="13.89" length="11.24" shape="249.06,220.88 257.82,213.70"/>
    </edge>
    <edge id=":2922963639_5" function="internal">
        <lane id=":2922963639_5_0" index="0" speed="13.89" length="4.47" shape="249.06,220.88 251.27,219.37 252.90,218.63"/>
    </edge>
    <edge id=":2922963639_6" function="internal">
        <lane id=":2922963639_6_0" index="0" speed="13.89" length="3.79" shape="252.90,218.63 253.26,218.47 255.04,218.20 256.60,218.53"/>
    </edge>
    <edge id=":3376538123_0" function="internal">
        <lane id=":3376538123_0_0" index="0" speed="13.89" length="3.43" shape="332.89,137.82 332.49,141.18"/>
        <lane id=":3376538123_0_1" index="1" speed="13.89" length="3.43" shape="332.89,137.82 332.15,138.42 331.39,138.52 330.62,138.61 329.85,139.20"/>
    </edge>
    <edge id=":3376564967_0" function="internal">
        <lane id=":3376564967_0_0" index="0" speed="13.89" length="3.54" shape="401.47,332.65 400.56,332.32 399.80,332.48 399.03,332.64 398.11,332.33"/>
        <lane id=":3376564967_0_1" index="1" speed="13.89" length="3.54" shape="401.47,332.65 400.85,331.90 400.73,331.12 400.60,330.34 399.97,329.60"/>
        <lane id=":3376564967_0_2" index="2" speed="13.89" length="3.54" shape="403.37,329.95 402.74,329.19 402.61,328.40 402.47,327.62 401.83,326.87"/>
    </edge>
    <edge id=":5653448336_0" function="internal">
        <lane id=":5653448336_0_0" index="0" speed="13.89" length="6.44" shape="268.56,219.79 270.10,220.13 271.58,219.96 273.00,219.29 274.36,218.12"/>
    </edge>
    <edge id=":5653448336_1" function="internal">
        <lane id=":5653448336_1_0" index="0" speed="13.89" length="7.26" shape="268.56,219.79 275.36,222.33"/>
        <lane id=":5653448336_1_1" index="1" speed="13.89" length="7.26" shape="267.40,222.88 274.21,225.42"/>
    </edge>
    <edge id=":5653448336_3" function="internal">
        <lane id=":5653448336_3_0" index="0" speed="13.89" length="10.52" shape="269.38,227.14 270.14,224.19 271.00,222.17 272.30,220.38 274.36,218.12"/>
    </edge>
    <edge id=":5653448336_4" function="internal">
        <lane id=":5653448336_4_0" index="0" speed="13.89" length="6.00" shape="269.38,227.14 269.95,225.82 270.95,225.09 272.37,224.96 274.21,225.42"/>
    </edge>
    <edge id=":659498195_0" function="internal">
        <lane id=":659498195_0_0" index="0" allow="bus bicycle" speed="13.89" length="0.21" shape="83.34,168.50 83.15,168.43"/>
    </edge>
    <edge id=":659498195_1" function="internal">
        <lane id=":659498195_1_0" index="0" speed="13.89" length="0.31" shape="89.62,149.72 89.98,149.85"/>
        <lane id=":659498195_1_1" index="1" speed="13.89" length="0.31" shape="88.54,152.84 88.88,152.96"/>
        <lane id=":659498195_1_2" index="2" speed="13.89" length="0.31" shape="87.46,155.96 87.77,156.06"/>
        <lane id=":659498195_1_3" index="3" speed="13.89" length="0.31" shape="86.38,159.07 86.66,159.17"/>
        <lane id=":659498195_1_4" index="4" speed="13.89" length="0.31" shape="85.30,162.19 85.56,162.28"/>
        <lane id=":659498195_1_5" index="5" speed="13.89" length="0.31" shape="84.23,165.31 84.45,165.39"/>
    </edge>
    <edge id=":659498265_0" function="internal">
        <lane id=":659498265_0_0" index="0" speed="13.89" length="7.61" shape="273.67,210.30 281.32,210.92"/>
        <lane id=":659498265_0_1" index="1" speed="13.89" length="7.61" shape="273.43,213.59 280.96,214.20"/>
    </edge>
    <edge id=":659498265_2" function="internal">
        <lane id=":659498265_2_0" index="0" speed="13.89" length="7.07" shape="274.95,217.49 276.58,215.94 278.13,214.88 279.58,214.30 280.96,214.20"/>
    </edge>
    <edge id=":659498280_0" function="internal">
        <lane id=":659498280_0_0" index="0" speed="13.89" length="9.01" shape="259.71,213.95 259.80,213.02 260.46,211.37 261.71,208.99 263.55,205.88"/>
    </edge>
    <edge id=":659498280_1" function="internal">
        <lane id=":659498280_1_0" index="0" speed="13.89" length="6.07" shape="259.71,213.95 259.87,213.36 260.84,213.01 262.64,212.88 265.26,212.99"/>
    </edge>
    <edge id=":659498280_2" function="internal">
        <lane id=":659498280_2_0" index="0" speed="13.89" length="7.60" shape="255.23,208.97 256.49,208.73 257.83,207.85 259.25,206.33 260.73,204.16"/>
    </edge>
    <edge id=":659498280_3" function="internal">
        <lane id=":659498280_3_0" index="0" speed="13.89" length="10.29" shape="255.23,208.97 265.51,209.70"/>
        <lane id=":659498280_3_1" index="1" speed="13.89" length="10.29" shape="255.01,212.26 265.26,212.99"/>
    </edge>
    <edge id=":659498280_5" function="internal">
        <lane id=":659498280_5_0" index="0" speed="13.89" length="0.67" shape="255.80,211.08 256.38,210.76"/>
    </edge>
    <edge id=":659498280_6" function="internal">
        <lane id=":659498280_6_0" index="0" speed="13.89" length="7.41" shape="257.97,213.57 258.87,213.15 260.38,212.91 262.51,212.86 265.26,212.99"/>
    </edge>
    <edge id=":659498280_7" function="internal">
        <lane id=":659498280_7_0" index="0" speed="13.89" length="9.32" shape="256.38,210.76 257.23,210.27 259.33,209.77 262.09,209.58 265.51,209.70"/>
    </edge>
    <edge id=":74944354_0" function="internal">
        <lane id=":74944354_0_0" index="0" speed="13.89" length="4.82" shape="-0.53,139.80 -1.44,138.62 -1.56,137.71 -0.91,137.06 0.53,136.67"/>
    </edge>
    <edge id=":cluster_2460377681_2460377689_2585326575_2585326576_2762951953_2762951961_2762951987_0" function="internal">
        <lane id=":cluster_2460377681_2460377689_2585326575_2585326576_2762951953_2762951961_2762951987_0_0" index="0" speed="13.89" length="47.34" shape="349.19,298.96 340.32,293.68 331.23,289.58 320.74,284.73 307.65,277.21"/>
        <lane id=":cluster_2460377681_2460377689_2585326575_2585326576_2762951953_2762951961_2762951987_0_1" index="1" speed="13.89" length="47.34" shape="351.28,296.39 342.38,291.09 333.22,286.95 322.64,282.03 309.44,274.43"/>
        <lane id=":cluster_2460377681_2460377689_2585326575_2585326576_2762951953_2762951961_2762951987_0_2" index="2" speed="13.89" length="47.34" shape="353.37,293.83 344.44,288.51 335.22,284.31 324.54,279.33 311.22,271.66"/>
        <lane id=":cluster_2460377681_2460377689_2585326575_2585326576_2762951953_2762951961_2762951987_0_3" index="3" speed="13.89" length="47.34" shape="353.37,293.83 313.01,268.88"/>
    </edge>
    <edge id=":cluster_2460377681_2460377689_2585326575_2585326576_2762951953_2762951961_2762951987_4" function="internal">
        <lane id=":cluster_2460377681_2460377689_2585326575_2585326576_2762951953_2762951961_2762951987_4_0" index="0" speed="13.89" length="18.28" shape="353.37,293.83 351.42,287.52 352.31,283.52 356.04,281.84 359.51,282.17"/>
    </edge>
    <edge id=":cluster_2460377681_2460377689_2585326575_2585326576_2762951953_2762951961_2762951987_12" function="internal">
        <lane id=":cluster_2460377681_2460377689_2585326575_2585326576_2762951953_2762951961_2762951987_12_0" index="0" speed="13.89" length="3.11" shape="359.51,282.17 362.61,282.46"/>
    </edge>
    <edge id=":cluster_2460377681_2460377689_2585326575_2585326576_2762951953_2762951961_2762951987_5" function="internal">
        <lane id=":cluster_2460377681_2460377689_2585326575_2585326576_2762951953_2762951961_2762951987_5_0" index="0" speed="12.50" length="23.27" shape="366.12,259.68 361.83,265.55 360.17,270.88 361.12,275.66 364.69,279.90"/>
    </edge>
    <edge id=":cluster_2460377681_2460377689_2585326575_2585326576_2762951953_2762951961_2762951987_6" function="internal">
        <lane id=":cluster_2460377681_2460377689_2585326575_2585326576_2762951953_2762951961_2762951987_6_0" index="0" speed="12.50" length="59.42" shape="366.12,259.68 353.46,270.51 340.39,275.65 326.90,275.11 313.01,268.88"/>
    </edge>
    <edge id=":cluster_2460377681_2460377689_2585326575_2585326576_2762951953_2762951961_2762951987_7" function="internal">
        <lane id=":cluster_2460377681_2460377689_2585326575_2585326576_2762951953_2762951961_2762951987_7_0" index="0" speed="12.50" length="57.05" shape="366.12,259.68 354.41,269.41 341.96,273.72 328.75,272.62 314.79,266.11"/>
    </edge>
    <edge id=":cluster_2460377681_2460377689_2585326575_2585326576_2762951953_2762951961_2762951987_8" function="internal">
        <lane id=":cluster_2460377681_2460377689_2585326575_2585326576_2762951953_2762951961_2762951987_8_0" index="0" speed="12.50" length="54.74" shape="366.12,259.68 355.37,268.30 343.53,271.79 330.60,270.13 316.58,263.33"/>
    </edge>
    <edge id=":cluster_2460377681_2460377689_2585326575_2585326576_2762951953_2762951961_2762951987_9" function="internal">
        <lane id=":cluster_2460377681_2460377689_2585326575_2585326576_2762951953_2762951961_2762951987_9_0" index="0" speed="13.89" length="49.35" shape="324.83,250.49 364.69,279.90"/>
        <lane id=":cluster_2460377681_2460377689_2585326575_2585326576_2762951953_2762951961_2762951987_9_1" index="1" speed="13.89" length="49.35" shape="323.04,253.27 362.61,282.46"/>
    </edge>
    <edge id=":cluster_2460377681_2460377689_2585326575_2585326576_2762951953_2762951961_2762951987_11" function="internal">
        <lane id=":cluster_2460377681_2460377689_2585326575_2585326576_2762951953_2762951961_2762951987_11_0" index="0" speed="13.89" length="8.73" shape="323.04,253.27 325.20,258.21 324.84,261.53"/>
    </edge>
    <edge id=":cluster_2460377681_2460377689_2585326575_2585326576_2762951953_2762951961_2762951987_13" function="internal">
        <lane id=":cluster_2460377681_2460377689_2585326575_2585326576_2762951953_2762951961_2762951987_13_0" index="0" speed="13.89" length="8.73" shape="324.84,261.53 321.96,263.24 316.58,263.33"/>
    </edge>

    <edge id="-165691554" from="2460377707" to="659498195" priority="-1" type="highway.primary" shape="181.10,201.79 165.16,195.87 83.79,166.91">
        <lane id="-165691554_0" index="0" allow="bus bicycle" speed="13.89" length="102.64" shape="179.97,203.12 164.59,197.43 83.34,168.50"/>
    </edge>
    <edge id="-165691575#1" from="659498195" to="74944354" priority="-1" type="highway.primary" shape="83.79,166.91 62.49,159.54 42.44,152.63 0.00,138.24">
        <lane id="-165691575#1_0" index="0" allow="bus bicycle" speed="13.89" length="88.44" shape="83.15,168.43 61.96,161.10 41.91,154.19 -0.53,139.80"/>
    </edge>
    <edge id="152833112#0" from="262557966" to="2299991433" priority="-1" type="highway.primary_link" spreadType="center" shape="214.63,249.94 213.84,240.57 211.07,227.09 204.20,212.87">
        <lane id="152833112#0_0" index="0" speed="13.89" length="20.94" shape="213.99,242.39 213.84,240.57 211.07,227.09 208.74,222.27"/>
    </edge>
    <edge id="165691540" from="2460377707" to="1772326662" priority="-1" type="highway.primary" spreadType="center" shape="181.32,200.15 240.78,209.66">
        <lane id="165691540_0" index="0" speed="13.89" length="50.66" shape="182.79,200.38 232.81,208.39"/>
    </edge>
    <edge id="165691556" from="659498195" to="2460377707" priority="-1" type="highway.primary" shape="83.79,166.91 165.16,195.87 181.10,201.79">
        <lane id="165691556_0" index="0" speed="13.89" length="102.79" shape="89.98,149.85 171.35,178.82 186.85,184.56"/>
        <lane id="165691556_1" index="1" speed="13.89" length="102.79" shape="88.88,152.96 170.23,181.92 185.70,187.65"/>
        <lane id="165691556_2" index="2" speed="13.89" length="102.79" shape="87.77,156.06 169.10,185.02 184.55,190.75"/>
        <lane id="165691556_3" index="3" speed="13.89" length="102.79" shape="86.66,159.17 167.97,188.12 183.41,193.84"/>
        <lane id="165691556_4" index="4" speed="13.89" length="102.79" shape="85.56,162.28 166.85,191.22 182.26,196.93"/>
        <lane id="165691556_5" index="5" speed="13.89" length="102.79" shape="84.45,165.39 165.72,194.32 181.11,200.03"/>
    </edge>
    <edge id="165691568" from="74944354" to="659498195" priority="-1" type="highway.primary" shape="0.00,138.24 42.44,152.63 62.49,159.54 83.79,166.91">
        <lane id="165691568_0" index="0" allow="bus bicycle" speed="13.89" length="88.51" shape="5.83,121.05 48.32,135.46 68.42,142.38 89.62,149.72"/>
        <lane id="165691568_1" index="1" speed="13.89" length="88.51" shape="4.77,124.17 47.25,138.58 67.34,145.50 88.54,152.84"/>
        <lane id="165691568_2" index="2" speed="13.89" length="88.51" shape="3.71,127.30 46.18,141.70 66.26,148.62 87.46,155.96"/>
        <lane id="165691568_3" index="3" speed="13.89" length="88.51" shape="2.65,130.42 45.11,144.82 65.19,151.74 86.38,159.07"/>
        <lane id="165691568_4" index="4" speed="13.89" length="88.51" shape="1.59,133.55 44.04,147.95 64.11,154.86 85.30,162.19"/>
        <lane id="165691568_5" index="5" speed="13.89" length="88.51" shape="0.53,136.67 42.98,151.07 63.03,157.98 84.23,165.31"/>
    </edge>
    <edge id="238184611#0" from="1772326662" to="2922963639" priority="-1" type="highway.secondary" spreadType="center">
        <lane id="238184611#0_0" index="0" speed="13.89" length="11.44" shape="237.41,206.34 247.85,211.01"/>
        <lane id="238184611#0_1" index="1" speed="13.89" length="11.44" shape="236.06,209.35 246.50,214.03"/>
    </edge>
    <edge id="238184611#1" from="2922963639" to="2460377698" priority="-1" type="highway.secondary" spreadType="center">
        <lane id="238184611#1_0" index="0" speed="13.89" length="0.20" shape="257.94,215.52 258.12,215.60"/>
        <lane id="238184611#1_1" index="1" speed="13.89" length="0.20" shape="256.60,218.53 256.79,218.61"/>
    </edge>
    <edge id="238184611#2" from="2460377698" to="5653448336" priority="-1" type="highway.secondary" spreadType="center">
        <lane id="238184611#2_0" index="0" speed="13.89" length="0.25" shape="268.32,219.70 268.56,219.79"/>
        <lane id="238184611#2_1" index="1" speed="13.89" length="0.25" shape="267.16,222.79 267.40,222.88"/>
    </edge>
    <edge id="238184611#3" from="5653448336" to="cluster_2460377681_2460377689_2585326575_2585326576_2762951953_2762951961_2762951987" priority="-1" type="highway.secondary" spreadType="center" shape="270.48,222.27 285.83,227.99 304.77,237.90 346.04,268.01">
        <lane id="238184611#3_0" index="0" speed="13.89" length="56.89" shape="275.36,222.33 286.51,226.48 305.65,236.50 324.83,250.49"/>
        <lane id="238184611#3_1" index="1" speed="13.89" length="56.89" shape="274.21,225.42 285.16,229.50 303.90,239.31 323.04,253.27"/>
    </edge>
    <edge id="238184616#0" from="2460377705" to="2460377701" priority="-1" type="highway.secondary_link" spreadType="center">
        <lane id="238184616#0_0" index="0" speed="13.89" length="0.20" shape="268.54,235.39 268.41,235.23"/>
    </edge>
    <edge id="238184616#1" from="2460377701" to="2460377698" priority="-1" type="highway.secondary_link" spreadType="center">
        <lane id="238184616#1_0" index="0" speed="13.89" length="2.67" shape="265.27,228.23 264.27,225.75"/>
    </edge>
    <edge id="238184616#2" from="2460377698" to="659498280" priority="-1" type="highway.secondary_link" spreadType="center">
        <lane id="238184616#2_0" index="0" speed="13.89" length="0.20" shape="259.78,214.14 259.71,213.95"/>
    </edge>
    <edge id="239281168" from="cluster_2460377681_2460377689_2585326575_2585326576_2762951953_2762951961_2762951987" to="2460377705" priority="-1" type="highway.primary" spreadType="center" shape="312.12,270.27 279.56,249.35">
        <lane id="239281168_0" index="0" speed="13.89" length="53.98" shape="307.65,277.21 262.25,248.02"/>
        <lane id="239281168_1" index="1" speed="13.89" length="53.98" shape="309.44,274.43 264.03,245.25"/>
        <lane id="239281168_2" index="2" speed="13.89" length="53.98" shape="311.22,271.66 265.81,242.47"/>
        <lane id="239281168_3" index="3" speed="13.89" length="53.98" shape="313.01,268.88 267.60,239.69"/>
        <lane id="239281168_4" index="4" speed="13.89" length="53.98" shape="314.79,266.11 269.38,236.92"/>
        <lane id="239281168_5" index="5" speed="13.89" length="53.98" shape="316.58,263.33 271.17,234.14"/>
    </edge>
    <edge id="239281169" from="2460377692" to="2460377708" priority="-1" type="highway.primary_link" spreadType="center" shape="368.40,213.48 384.05,217.49 391.06,223.32 395.58,231.60">
        <lane id="239281169_0" index="0" speed="13.89" length="16.60" shape="381.53,216.84 384.05,217.49 391.06,223.32 393.40,227.61"/>
    </edge>
    <edge id="24251022" from="262557531" to="275608657" priority="-1" type="highway.tertiary" spreadType="center" shape="366.25,83.54 339.21,114.77">
        <lane id="24251022_0" index="0" speed="13.89" length="21.92" shape="355.70,98.24 341.36,114.81"/>
        <lane id="24251022_1" index="1" speed="13.89" length="21.92" shape="353.21,96.07 338.86,112.65"/>
    </edge>
    <edge id="24251125" from="262557531" to="3376538123" priority="-1" type="highway.secondary" spreadType="center" shape="363.59,81.58 359.05,100.16 332.05,139.02">
        <lane id="24251125_0" index="0" speed="13.89" length="45.62" shape="358.92,100.35 332.89,137.82"/>
    </edge>
    <edge id="242567249" from="2299991433" to="2460377707" priority="-1" type="highway.primary" spreadType="center" shape="204.20,212.87 178.96,206.25">
        <lane id="242567249_0" index="0" speed="13.89" length="22.02" shape="202.19,215.75 181.20,210.25"/>
        <lane id="242567249_1" index="1" speed="13.89" length="22.02" shape="203.03,212.56 181.73,206.97"/>
        <lane id="242567249_2" index="2" speed="13.89" length="22.02" shape="203.87,209.37 182.25,203.70"/>