<?xml version="1.0" encoding="UTF-8"?>

<!-- generated on Sat May 25 11:49:00 2019 by SUMO duarouter Version 0.32.0
<?xml version="1.0" encoding="UTF-8"?>

<configuration xmlns:xsi="http://www.w3.org/2001/XMLSchema-instance" xsi:noNamespaceSchemaLocation="http://sumo.dlr.de/xsd/duarouterConfiguration.xsd">

    <input>
        <net-file value="2/map.net.xml"/>
        <route-files value="trips.trips.xml"/>
    </input>

    <output>
        <output-file value="2/map.rou.xml"/>
        <alternatives-output value="2/map.rou.alt.xml"/>
    </output>

    <processing>
        <ignore-errors value="true"/>
    </processing>

    <time>
        <begin value="0"/>
        <end value="100.0"/>
    </time>

    <report>
        <no-warnings value="true"/>
        <no-step-log value="true"/>
    </report>

</configuration>
-->

<routes xmlns:xsi="http://www.w3.org/2001/XMLSchema-instance" xsi:noNamespaceSchemaLocation="http://sumo.dlr.de/xsd/routes_file.xsd">
    <vehicle id="6" depart="6.00">
        <route edges="15238055#0 619706215#0"/>
    </vehicle>
    <vehicle id="18" depart="18.00">
        <route edges="183192595#0 548862183#0"/>
    </vehicle>
    <vehicle id="19" depart="19.00">
        <route edges="548862177#0"/>
    </vehicle>
    <vehicle id="21" depart="21.00">
        <route edges="227348517#1 619706215#0"/>
    </vehicle>
    <vehicle id="32" depart="32.00">
        <route edges="183192595#0 15238055#0"/>
    </vehicle>
    <vehicle id="35" depart="35.00">
        <route edges="548862177#0 15238055#0"/>
    </vehicle>
    <vehicle id="42" depart="42.00">
        <route edges="288231838#0 53864665#0 24288373#0"/>
    </vehicle>
    <vehicle id="45" depart="45.00">
        <route edges="548862177#0 15238055#0 619706215#0"/>
    </vehicle>
    <vehicle id="46" depart="46.00">
        <route edges="53864665#0 24288373#0"/>
    </vehicle>
    <vehicle id="49" depart="49.00">
        <route edges="183192595#0 15238055#0 619706215#0"/>
    </vehicle>
    <vehicle id="51" depart="51.00">
        <route edges="548862181#0 201007774"/>
    </vehicle>
    <vehicle id="54" depart="54.00">
        <route edges="601020855#0"/>
    </vehicle>
    <vehicle id="57" depart="57.00">
        <route edges="548862177#0 548862183#0"/>
    </vehicle>
    <vehicle id="65" depart="65.00">
        <route edges="548862180#0 548862177#0 15238055#0 619706215#0"/>
    </vehicle>
    <vehicle id="67" depart="67.00">
        <route edges="15238055#0 619706215#0"/>
    </vehicle>
    <vehicle id="69" depart="69.00">
        <route edges="183192595#0 15238055#0 619706215#0 619706215#1"/>
    </vehicle>
    <vehicle id="84" depart="84.00">
        <route edges="548862177#0 15238055#0 619706215#0 619706215#1"/>
    </vehicle>
    <vehicle id="85" depart="85.00">
        <route edges="619706215#0 619706215#1"/>
    </vehicle>
    <vehicle id="90" depart="90.00">
        <route edges="548862180#0 548862177#0"/>
    </vehicle>
    <vehicle id="99" depart="99.00">
        <route edges="53864665#0 24288373#0 201007773#0"/>
    </vehicle>
</routes>
