<?xml version="1.0" encoding="UTF-8"?>

<!-- generated on Sat May 25 11:48:59 2019 by SUMO polyconvert Version 0.32.0
<?xml version="1.0" encoding="UTF-8"?>

<configuration xmlns:xsi="http://www.w3.org/2001/XMLSchema-instance" xsi:noNamespaceSchemaLocation="http://sumo.dlr.de/xsd/polyconvertConfiguration.xsd">

    <input>
        <net-file value="2/map.net.xml"/>
        <osm-files value="2/map.osm"/>
        <type-file value="/home/rd/Downloads/sumo-0.32.0/data/typemap/osmPolyconvert.typ.xml"/>
    </input>

    <output>
        <output-file value="2/map.typ.xml"/>
    </output>

    <processing>
        <poi-layer-offset value="5"/>
    </processing>

</configuration>
-->

<additional xmlns:xsi="http://www.w3.org/2001/XMLSchema-instance" xsi:noNamespaceSchemaLocation="http://sumo.dlr.de/xsd/additional_file.xsd">
    <location netOffset="-352432.53,-5259572.73" convBoundary="-745.91,-1132.66,3106.41,2986.82" origBoundary="19.023994,47.462682,19.081823,47.500508" projParameter="+proj=utm +zone=34 +ellps=WGS84 +datum=WGS84 +units=m +no_defs"/>

    <poly id="117827360" type="building" color="255,230,230" fill="1" layer="-1.00" shape="537.89,73.39 482.69,82.88 442.63,-30.22 516.90,-54.44 530.13,-8.03 510.88,-2.69 507.42,-14.08 514.96,-16.32 508.66,-38.56 458.38,-22.28 491.02,70.32 512.52,65.82 512.01,63.03 516.46,62.30 521.29,61.24 520.74,58.05 530.34,56.48 530.82,59.49 535.17,58.80 537.89,73.39"/>
    <poly id="137837999" type="amenity" color="237,199,199" fill="1" layer="-1.00" shape="405.03,93.54 404.66,91.46 404.15,88.69 405.33,88.46 401.90,69.64 420.32,66.29 423.73,84.94 424.90,84.73 425.42,87.53 425.83,89.77 405.03,93.54"/>
    <poly id="137837999#1" type="building" color="255,230,230" fill="1" layer="-1.00" shape="405.03,93.54 404.66,91.46 404.15,88.69 405.33,88.46 401.90,69.64 420.32,66.29 423.73,84.94 424.90,84.73 425.42,87.53 425.83,89.77 405.03,93.54"/>
    <poly id="141392647" type="amenity" color="237,199,199" fill="1" layer="-1.00" shape="223.94,126.02 227.94,124.61 232.37,137.07 230.62,137.69 234.08,147.47 245.55,143.42 247.64,142.69 244.17,132.92 241.57,133.83 237.20,121.53 245.43,118.63 245.57,119.01 247.06,119.82 249.10,119.10 249.96,117.46 247.65,110.93 245.36,104.49 243.83,103.86 241.87,104.55 240.86,106.07 241.18,106.94 232.85,109.87 228.35,97.17 230.76,96.32 227.13,86.12 213.75,90.84 217.37,101.04 219.15,100.42 223.59,112.96 219.77,114.30 223.94,126.02"/>
    <poly id="141392647#1" type="building" color="255,230,230" fill="1" layer="-1.00" shape="223.94,126.02 227.94,124.61 232.37,137.07 230.62,137.69 234.08,147.47 245.55,143.42 247.64,142.69 244.17,132.92 241.57,133.83 237.20,121.53 245.43,118.63 245.57,119.01 247.06,119.82 249.10,119.10 249.96,117.46 247.65,110.93 245.36,104.49 243.83,103.86 241.87,104.55 240.86,106.07 241.18,106.94 232.85,109.87 228.35,97.17 230.76,96.32 227.13,86.12 213.75,90.84 217.37,101.04 219.15,100.42 223.59,112.96 219.77,114.30 223.94,126.02"/>
    <poly id="235997683" type="landuse" color="194,194,130" fill="1" layer="-3.00" shape="122.20,206.36 107.30,211.18 111.00,221.90 319.93,145.05 317.11,136.04 174.78,187.78 183.23,192.90 130.41,212.26 122.20,206.36"/>
    <poly id="24721981" type="tourism" color="207,245,201" fill="1" layer="-2.00" shape="229.70,32.55 198.37,44.62 149.54,63.43 155.48,79.67 163.22,100.70 176.89,95.22 212.12,81.74 243.62,68.68 235.53,47.50 229.70,32.55"/>
    <poly id="252140867" type="building" color="255,230,230" fill="1" layer="-1.00" shape="361.86,186.11 367.45,205.05 366.42,205.41 348.07,211.80 343.34,198.71 349.07,196.66 347.22,189.98 348.36,189.68 361.86,186.11"/>
    <poly id="252140885" type="building" color="255,230,230" fill="1" layer="-1.00" shape="256.45,210.27 249.83,212.60 246.91,204.95 230.48,210.61 226.17,198.19 248.78,190.17 256.45,210.27"/>
    <poly id="252140890" type="building" color="255,230,230" fill="1" layer="-1.00" shape="276.08,194.67 258.08,200.95 258.47,202.10 260.53,201.45 262.85,208.00 256.45,210.27 248.78,190.17 271.58,181.72 276.08,194.67"/>
    <poly id="252396014" type="building" color="255,230,230" fill="1" layer="-1.00" shape="262.81,108.48 261.09,103.71 263.95,102.68 262.51,98.68 259.69,99.70 257.98,94.98 271.30,90.20 273.00,94.88 274.81,94.24 276.26,98.25 274.34,98.94 276.07,103.71 262.81,108.48"/>
    <poly id="252396016" type="building" color="255,230,230" fill="1" layer="-1.00" shape="253.08,81.43 248.23,68.02 261.11,63.38 261.56,64.61 262.34,64.34 266.74,76.50 253.08,81.43"/>
    <poly id="252396018" type="building" color="255,230,230" fill="1" layer="-1.00" shape="257.98,94.98 253.08,81.43 266.74,76.50 268.50,81.37 269.15,81.14 270.58,85.09 269.59,85.45 271.30,90.20 257.98,94.98"/>
    <poly id="252396019" type="building" color="255,230,230" fill="1" layer="-1.00" shape="335.15,84.15 331.69,71.91 317.09,75.30 319.54,88.22 335.15,84.15"/>
    <poly id="252396020" type="building" color="255,230,230" fill="1" layer="-1.00" shape="331.69,71.91 328.26,57.81 301.98,65.05 304.24,72.82 315.46,69.63 317.09,75.30 331.69,71.91"/>
    <poly id="252396021" type="building" color="255,230,230" fill="1" layer="-1.00" shape="276.07,103.71 276.83,103.44 278.68,108.55 274.17,110.17 276.26,115.91 278.71,115.02 279.59,117.47 276.52,118.57 277.65,121.72 286.58,118.52 284.98,114.11 290.67,112.03 295.81,126.16 272.26,134.59 266.74,119.33 262.81,108.48 276.07,103.71"/>
    <poly id="252396023" type="building" color="255,230,230" fill="1" layer="-1.00" shape="322.29,116.58 341.82,109.47 335.15,84.15 319.54,88.22 322.99,100.09 317.18,102.51 322.29,116.58"/>
    <poly id="252396024" type="building" color="255,230,230" fill="1" layer="-1.00" shape="301.98,65.05 300.26,57.76 307.95,55.97 309.66,56.85 312.73,56.12 311.97,53.73 311.06,53.83 309.55,48.10 324.76,43.89 328.26,57.81 301.98,65.05"/>
    <poly id="252396026" type="building" color="255,230,230" fill="1" layer="-1.00" shape="290.67,112.03 295.81,126.16 322.29,116.58 317.18,102.51 313.27,103.92 312.83,102.70 306.28,105.07 306.80,106.50 300.58,108.73 300.10,107.43 293.82,109.70 294.20,110.75 290.67,112.03"/>
    <poly id="32800778" type="commercial" color="209,209,204" fill="1" layer="-3.00" shape="494.66,263.35 506.54,260.22 519.82,310.26 534.07,363.71 536.75,376.14 546.68,372.92 585.26,361.78 634.33,347.87 675.04,335.80 680.54,329.63 672.85,302.57 655.18,230.95 634.48,148.31 632.04,128.00 628.93,120.96 624.46,117.59 618.92,116.26 617.45,109.28 617.37,101.50 618.10,92.90 608.49,94.94 587.73,99.06 557.60,105.56 550.84,107.02 527.67,111.07 477.82,118.51 467.97,120.22 460.74,121.47 383.94,136.55 386.13,153.39 387.96,159.38 390.32,166.96 408.91,237.13 439.26,229.19 446.87,227.09 482.33,218.52 482.67,219.76 489.93,246.17 494.66,263.35"/>
    <poly id="32800779" type="amenity" color="237,199,199" fill="1" layer="-1.00" shape="406.12,220.74 430.71,214.23 430.51,213.49 431.87,213.13 433.85,220.57 431.93,221.07 433.99,228.80 481.78,216.16 494.48,212.80 479.44,156.24 476.50,145.20 410.67,162.61 411.44,165.48 401.67,168.08 392.74,170.44 395.64,181.36 403.53,211.01 406.12,220.74"/>
    <poly id="32800779#1" type="building" color="255,230,230" fill="1" layer="-1.00" shape="406.12,220.74 430.71,214.23 430.51,213.49 431.87,213.13 433.85,220.57 431.93,221.07 433.99,228.80 481.78,216.16 494.48,212.80 479.44,156.24 476.50,145.20 410.67,162.61 411.44,165.48 401.67,168.08 392.74,170.44 395.64,181.36 403.53,211.01 406.12,220.74"/>
    <poly id="477888083" type="landuse" color="194,194,130" fill="1" layer="-3.00" shape="408.93,158.27 420.14,155.40 416.51,140.30 404.80,142.78 408.93,158.27"/>
    <poly id="477888084" type="landuse" color="194,194,130" fill="1" layer="-3.00" shape="431.33,152.34 443.57,149.18 440.19,136.38 427.74,138.56 431.33,152.34"/>
    <poly id="477888085" type="landuse" color="194,194,130" fill="1" layer="-3.00" shape="451.68,147.10 448.50,134.85 466.00,131.95 468.60,142.76 451.68,147.10"/>
    <poly id="477888089" type="landuse" color="194,194,130" fill="1" layer="-3.00" shape="488.20,131.32 498.32,131.15 514.59,126.74 513.73,123.22 487.25,128.21 488.20,131.32"/>
    <poly id="477888090" type="landuse" color="194,194,130" fill="1" layer="-3.00" shape="492.69,148.45 489.93,138.56 505.07,134.35 516.69,133.74 518.48,141.76 496.09,147.96 492.69,148.45"/>
    <poly id="506049761" type="building" color="255,230,230" fill="1" layer="-1.00" shape="261.11,63.38 258.82,57.12 260.41,56.39 259.47,53.93 258.26,54.32 257.32,51.76 255.23,51.05 254.50,49.66 263.60,46.12 264.43,48.05 262.38,48.78 264.82,54.58 270.83,52.21 263.12,32.94 238.75,42.29 248.23,68.02 261.11,63.38"/>
    <poly id="506049764" type="building" color="255,230,230" fill="1" layer="-1.00" shape="290.30,189.51 298.86,186.21 294.29,173.31 272.71,181.36 271.58,181.72 276.08,194.67 285.14,191.43 285.76,192.02 286.66,192.44 287.98,192.48 288.98,192.08 289.64,191.50 290.06,190.81 290.30,189.51"/>
    <poly id="506049768" type="building" color="255,230,230" fill="1" layer="-1.00" shape="317.14,164.96 294.29,173.31 298.86,186.21 304.29,184.19 306.51,190.94 311.03,189.24 308.79,182.79 321.89,178.13 317.14,164.96"/>
    <poly id="506049771" type="building" color="255,230,230" fill="1" layer="-1.00" shape="344.06,173.19 348.36,189.68 361.86,186.11 357.04,169.11 344.06,173.19"/>
    <poly id="546932432" type="building" color="255,230,230" fill="1" layer="-1.00" shape="357.04,169.11 352.80,152.76 317.14,164.96 321.89,178.13 343.40,171.02 344.06,173.19 357.04,169.11"/>
    <poly id="546932438" type="building" color="255,230,230" fill="1" layer="-1.00" shape="387.44,38.25 386.65,35.85 400.36,31.34 401.15,33.75 402.60,33.27 409.28,53.48 392.88,58.88 386.19,38.66 387.44,38.25"/>
    <poly id="546932439" type="building" color="255,230,230" fill="1" layer="-1.00" shape="379.08,72.97 367.74,75.97 375.00,103.66 398.36,99.07 397.31,92.84 398.25,92.68 397.04,85.60 388.29,87.09 388.47,88.15 383.47,89.01 379.08,72.97"/>
    <poly id="546932444" type="building" color="255,230,230" fill="1" layer="-1.00" shape="433.98,56.37 446.55,51.87 436.81,24.91 424.25,29.42 433.98,56.37"/>
    <poly id="549736239" type="building" color="255,230,230" fill="1" layer="-1.00" shape="429.79,137.96 436.06,136.97 435.79,135.30 429.52,136.30 429.79,137.96"/>
    <poly id="549736240" type="building" color="255,230,230" fill="1" layer="-1.00" shape="302.83,167.50 307.21,165.97 306.60,164.27 302.22,165.81 302.83,167.50"/>
    <poly id="77692351" type="building" color="255,230,230" fill="1" layer="-1.00" shape="379.08,72.97 361.38,8.29 367.19,6.37 363.89,-4.68 347.87,0.21 367.74,75.97 379.08,72.97"/>
    <poly id="77692537" type="building" color="255,230,230" fill="1" layer="-1.00" shape="446.55,51.87 456.92,81.44 458.05,87.35 433.66,91.92 432.46,86.19 431.00,79.35 442.14,77.68 433.98,56.37 446.55,51.87"/>
    <poi id="1326506697" type="shop" color="237,199,255" layer="4.00" x="380.00" y="95.12"/>
    <poi id="2270429456" type="amenity" color="237,199,199" layer="4.00" x="351.90" y="158.28"/>
    <poi id="2515172064" type="shop" color="237,199,255" layer="4.00" x="371.05" y="77.77"/>
    <poi id="2515177481" type="amenity" color="237,199,199" layer="4.00" x="345.81" y="111.66"/>
    <poi id="2515181234" type="shop" color="237,199,255" layer="4.00" x="354.44" y="172.55"/>
    <poi id="3508514852" type="shop" color="237,199,255" layer="4.00" x="327.57" y="164.35"/>
    <poi id="3508521665" type="amenity" color="237,199,199" layer="4.00" x="335.27" y="161.27"/>
    <poi id="3565796414" type="amenity" color="237,199,199" layer="4.00" x="422.12" y="146.36"/>
    <poi id="3629356312" type="amenity" color="237,199,199" layer="4.00" x="410.87" y="155.90"/>
    <poi id="3780898589" type="amenity" color="237,199,199" layer="4.00" x="360.22" y="101.55"/>
    <poi id="3828492361" type="amenity" color="237,199,199" layer="4.00" x="374.15" y="119.85"/>
    <poi id="4051309018" type="amenity" color="237,199,199" layer="4.00" x="489.95" y="183.39"/>
    <poi id="4202686489" type="shop" color="237,199,255" layer="4.00" x="357.25" y="183.18"/>
    <poi id="4202691650" type="shop" color="237,199,255" layer="4.00" x="289.71" y="178.00"/>
    <poi id="4202694084" type="shop" color="237,199,255" layer="4.00" x="388.57" y="98.60"/>
    <poi id="4202698602" type="amenity" color="237,199,199" layer="4.00" x="328.23" y="110.42"/>
    <poi id="4202707273" type="shop" color="237,199,255" layer="4.00" x="264.88" y="186.51"/>
    <poi id="4362739193" type="amenity" color="237,199,199" layer="4.00" x="440.14" y="184.27"/>
    <poi id="4449043790" type="amenity" color="237,199,199" layer="4.00" x="476.19" y="154.91"/>
    <poi id="4642613105" type="amenity" color="237,199,199" layer="4.00" x="407.54" y="156.21"/>
    <poi id="4642613106" type="amenity" color="237,199,199" layer="4.00" x="407.31" y="155.23"/>
    <poi id="5101465138" type="shop" color="237,199,255" layer="4.00" x="470.65" y="155.17"/>
    <poi id="5121641865" type="shop" color="237,199,255" layer="4.00" x="471.79" y="191.08"/>
    <poi id="5199972494" type="amenity" color="237,199,199" layer="4.00" x="325.60" y="165.06"/>
    <poi id="5326977390" type="shop" color="237,199,255" layer="4.00" x="399.27" y="192.72"/>
    <poi id="5713220994" type="amenity" color="237,199,199" layer="4.00" x="445.41" y="110.61"/>
    <poi id="5713220995" type="amenity" color="237,199,199" layer="4.00" x="432.56" y="112.92"/>
    <poi id="5713220996" type="amenity" color="237,199,199" layer="4.00" x="419.20" y="115.33"/>
    <poi id="5713220997" type="amenity" color="237,199,199" layer="4.00" x="406.54" y="117.61"/>
    <poi id="5713236366" type="amenity" color="237,199,199" layer="4.00" x="392.60" y="162.80"/>
    <poi id="5713236367" type="amenity" color="237,199,199" layer="4.00" x="389.88" y="120.09"/>
    <poi id="5713274280" type="amenity" color="237,199,199" layer="4.00" x="465.25" y="127.72"/>
    <poi id="5928333928" type="natural" color="140,196,107" layer="1.00" x="396.62" y="146.51"/>
    <poi id="6138964664" type="tourism" color="207,245,201" layer="3.00" x="377.40" y="178.76"/>
    <poi id="6442051756" type="amenity" color="237,199,199" layer="4.00" x="477.81" y="167.55"/>
    <poi id="726158409" type="amenity" color="237,199,199" layer="4.00" x="485.57" y="165.11"/>
</additional>
